LAMMPS (22 Dec 2022)
# PREREQUISITES:
#
#     You must use moltemplate.sh to create 3 files:
#        system.data  system.in.init  system.in.settings
#     (Follow the instructions in README_setup.sh,
#      or run the file as a script using ./README_setup.sh)

# ------------------------------- Initialization Section --------------------

units real
atom_style full
pair_style lj/class2/coul/cut 10.0
bond_style class2
angle_style class2
dihedral_style class2
improper_style class2

# ------------------------------- Atom Definition Section -------------------

read_data       "pack_mol.data" extra/bond/per/atom 1 extra/angle/per/atom 12 extra/dihedral/per/atom 12 extra/improper/per/atom 12 extra/special/per/atom 12
Reading data file ...
  orthogonal box = (0 0 0) to (47.598358 47.598358 47.598358)
  reading atoms ...
  4972 atoms
  scanning bonds ...
  scanning angles ...
  scanning dihedrals ...
  scanning impropers ...
  reading bonds ...
  5231 bonds
  reading angles ...
  10620 angles
  reading dihedrals ...
  16233 dihedrals
  reading impropers ...
  6840 impropers
Finding 1-2 1-3 1-4 neighbors ...
     4 = max # of 1-2 neighbors
     9 = max # of 1-3 neighbors
    18 = max # of 1-4 neighbors
    34 = max # of special neighbors

include calc.pram

# Masses

mass	1	12.01115	#	c
mass	2	12.01115	#	c1
mass	3	12.01115	#	c3h
mass	4	1.00797	#	h
mass	5	1.00797	#	hc
mass	6	15.99940	#	o3e
mass	7	15.99940	#	oc
mass	8	15.99940	#	oh

# Potentials

pair_coeff	1	1	0.05400	4.01000	#	c,c
pair_coeff	2	2	0.05400	4.01000	#	c1,c1
pair_coeff	3	3	0.05400	4.01000	#	c3h,c3h
pair_coeff	4	4	0.02000	2.99500	#	h,h
pair_coeff	5	5	0.02000	2.99500	#	hc,hc
pair_coeff	6	6	0.24000	3.53500	#	o3e,o3e
pair_coeff	7	7	0.24000	3.53500	#	oc,oc
pair_coeff	8	8	0.24000	3.53500	#	oh,oh

# Bond Coeffs

bond_coeff	1	1.53000	299.67000	-501.77000	679.81000	#	c,c
bond_coeff	2	1.53000	299.67000	-501.77000	679.81000	#	c,c1
bond_coeff	3	1.53000	299.67000	-501.77000	679.81000	#	c,c3h
bond_coeff	4	1.10100	345.00000	-691.89000	844.60000	#	c,hc
bond_coeff	5	1.42000	400.39540	-835.19510	1313.01420	#	c,o3e
bond_coeff	6	1.42000	400.39540	-835.19510	1313.01420	#	c,oc
bond_coeff	7	1.42000	400.39540	-835.19510	1313.01420	#	c,oh
bond_coeff	8	1.10100	345.00000	-691.89000	844.60000	#	c1,hc
bond_coeff	9	1.42000	400.39540	-835.19510	1313.01420	#	c1,oc
bond_coeff	10	1.10100	345.00000	-691.89000	844.60000	#	c3h,hc
bond_coeff	11	1.42000	400.39540	-835.19510	1313.01420	#	c3h,o3e
bond_coeff	12	0.96000	493.84800	0.00000	0.00000	#	h,oh

# Angle Coeffs

angle_coeff	1	112.67000	39.51600	-7.44300	-9.55830	#	c,c,c
angle_coeff	2	112.67000	39.51600	-7.44300	-9.55830	#	c,c,c1
angle_coeff	3	110.77000	41.45300	-10.60400	5.12900	#	c,c,hc
angle_coeff	4	111.27000	54.53810	-8.36420	-13.08380	#	c,c,oc
angle_coeff	5	112.67000	39.51600	-7.44300	-9.55830	#	c,c1,c
angle_coeff	6	110.77000	41.45300	-10.60400	5.12900	#	c,c1,hc
angle_coeff	7	111.27000	54.53810	-8.36420	-13.08380	#	c,c1,oc
angle_coeff	8	112.67000	39.51600	-7.44300	-9.55830	#	c,c3h,c
angle_coeff	9	110.77000	41.45300	-10.60400	5.12900	#	c,c3h,hc
angle_coeff	10	111.27000	54.53810	-8.36420	-13.08380	#	c,c3h,o3e
angle_coeff	11	104.50000	35.74540	-10.00670	-6.27290	#	c,o3e,c3h
angle_coeff	12	104.50000	35.74540	-10.00670	-6.27290	#	c,oc,c1
angle_coeff	13	109.00000	58.50000	0.00000	0.00000	#	c,oh,h
angle_coeff	14	112.67000	39.51600	-7.44300	-9.55830	#	c1,c,c1
angle_coeff	15	110.77000	41.45300	-10.60400	5.12900	#	c1,c,hc
angle_coeff	16	111.27000	54.53810	-8.36420	-13.08380	#	c1,c,oc
angle_coeff	17	111.27000	54.53810	-8.36420	-13.08380	#	c1,c,oh
angle_coeff	18	110.77000	41.45300	-10.60400	5.12900	#	c3h,c,hc
angle_coeff	19	111.27000	54.53810	-8.36420	-13.08380	#	c3h,c,o3e
angle_coeff	20	111.27000	54.53810	-8.36420	-13.08380	#	c3h,c,oc
angle_coeff	21	107.66000	39.64100	-12.92100	-2.43180	#	hc,c,hc
angle_coeff	22	108.72800	58.54460	-10.80880	-12.40060	#	hc,c,o3e
angle_coeff	23	108.72800	58.54460	-10.80880	-12.40060	#	hc,c,oc
angle_coeff	24	108.72800	58.54460	-10.80880	-12.40060	#	hc,c,oh
angle_coeff	25	108.72800	58.54460	-10.80880	-12.40060	#	hc,c1,oc
angle_coeff	26	108.72800	58.54460	-10.80880	-12.40060	#	hc,c3h,o3e

# BondBond Coeffs

angle_coeff	1	bb	0.00000	1.53000	1.53000	#	c,c,c
angle_coeff	2	bb	0.00000	1.53000	1.53000	#	c,c,c1
angle_coeff	3	bb	3.38720	1.53000	1.10100	#	c,c,hc
angle_coeff	4	bb	11.43180	1.53000	1.42000	#	c,c,oc
angle_coeff	5	bb	0.00000	1.53000	1.53000	#	c,c1,c
angle_coeff	6	bb	3.38720	1.53000	1.10100	#	c,c1,hc
angle_coeff	7	bb	11.43180	1.53000	1.42000	#	c,c1,oc
angle_coeff	8	bb	0.00000	1.53000	1.53000	#	c,c3h,c
angle_coeff	9	bb	3.38720	1.53000	1.10100	#	c,c3h,hc
angle_coeff	10	bb	11.43180	1.53000	1.42000	#	c,c3h,o3e
angle_coeff	11	bb	-7.11310	1.42000	1.42000	#	c,o3e,c3h
angle_coeff	12	bb	-7.11310	1.42000	1.42000	#	c,oc,c1
angle_coeff	13	bb	0.00000	1.42000	0.96000	#	c,oh,h
angle_coeff	14	bb	0.00000	1.53000	1.53000	#	c1,c,c1
angle_coeff	15	bb	3.38720	1.53000	1.10100	#	c1,c,hc
angle_coeff	16	bb	11.43180	1.53000	1.42000	#	c1,c,oc
angle_coeff	17	bb	11.43180	1.53000	1.42000	#	c1,c,oh
angle_coeff	18	bb	3.38720	1.53000	1.10100	#	c3h,c,hc
angle_coeff	19	bb	11.43180	1.53000	1.42000	#	c3h,c,o3e
angle_coeff	20	bb	11.43180	1.53000	1.42000	#	c3h,c,oc
angle_coeff	21	bb	5.33160	1.10100	1.10100	#	hc,c,hc
angle_coeff	22	bb	23.19790	1.10100	1.42000	#	hc,c,o3e
angle_coeff	23	bb	23.19790	1.10100	1.42000	#	hc,c,oc
angle_coeff	24	bb	23.19790	1.10100	1.42000	#	hc,c,oh
angle_coeff	25	bb	23.19790	1.10100	1.42000	#	hc,c1,oc
angle_coeff	26	bb	23.19790	1.10100	1.42000	#	hc,c3h,o3e

# BondAngle Coeffs

angle_coeff	1	ba	8.01600	8.01600	1.53000	1.53000	#	c,c,c
angle_coeff	2	ba	8.01600	8.01600	1.53000	1.53000	#	c,c,c1
angle_coeff	3	ba	11.42100	20.75400	1.53000	1.10100	#	c,c,hc
angle_coeff	4	ba	20.40330	2.68680	1.53000	1.42000	#	c,c,oc
angle_coeff	5	ba	8.01600	8.01600	1.53000	1.53000	#	c,c1,c
angle_coeff	6	ba	11.42100	20.75400	1.53000	1.10100	#	c,c1,hc
angle_coeff	7	ba	20.40330	2.68680	1.53000	1.42000	#	c,c1,oc
angle_coeff	8	ba	8.01600	8.01600	1.53000	1.53000	#	c,c3h,c
angle_coeff	9	ba	11.42100	20.75400	1.53000	1.10100	#	c,c3h,hc
angle_coeff	10	ba	2.68680	20.40330	1.53000	1.42000	#	c,c3h,o3e
angle_coeff	11	ba	-2.81120	-2.81120	1.42000	1.42000	#	c,o3e,c3h
angle_coeff	12	ba	-2.81120	-2.81120	1.42000	1.42000	#	c,oc,c1
angle_coeff	13	ba	0.00000	0.00000	1.42000	0.96000	#	c,oh,h
angle_coeff	14	ba	8.01600	8.01600	1.53000	1.53000	#	c1,c,c1
angle_coeff	15	ba	20.75400	11.42100	1.53000	1.10100	#	c1,c,hc
angle_coeff	16	ba	2.68680	20.40330	1.53000	1.42000	#	c1,c,oc
angle_coeff	17	ba	2.68680	20.40330	1.53000	1.42000	#	c1,c,oh
angle_coeff	18	ba	11.42100	20.75400	1.53000	1.10100	#	c3h,c,hc
angle_coeff	19	ba	2.68680	20.40330	1.53000	1.42000	#	c3h,c,o3e
angle_coeff	20	ba	20.40330	2.68680	1.53000	1.42000	#	c3h,c,oc
angle_coeff	21	ba	18.10300	18.10300	1.10100	1.10100	#	hc,c,hc
angle_coeff	22	ba	4.61890	55.32700	1.10100	1.42000	#	hc,c,o3e
angle_coeff	23	ba	4.61890	55.32700	1.10100	1.42000	#	hc,c,oc
angle_coeff	24	ba	4.61890	55.32700	1.10100	1.42000	#	hc,c,oh
angle_coeff	25	ba	4.61890	55.32700	1.10100	1.42000	#	hc,c1,oc
angle_coeff	26	ba	4.61890	55.32700	1.10100	1.42000	#	hc,c3h,o3e

# Dihedral Coeffs

dihedral_coeff	1	0.00000	0.00000	0.03160	0.00000	-0.16810	0.00000	#	c,c,c,hc
dihedral_coeff	2	0.71370	0.00000	0.26600	0.00000	-0.25450	0.00000	#	c,c,c,oc
dihedral_coeff	3	0.00000	0.00000	0.05140	0.00000	-0.14300	0.00000	#	c,c,c1,c
dihedral_coeff	4	0.00000	0.00000	0.03160	0.00000	-0.16810	0.00000	#	c,c,c1,hc
dihedral_coeff	5	0.71370	0.00000	0.26600	0.00000	-0.25450	0.00000	#	c,c,c1,oc
dihedral_coeff	6	-0.52030	0.00000	-0.30280	0.00000	-0.34500	0.00000	#	c,c,oc,c1
dihedral_coeff	7	0.00000	0.00000	0.05140	0.00000	-0.14300	0.00000	#	c,c1,c,c1
dihedral_coeff	8	0.00000	0.00000	0.03160	0.00000	-0.16810	0.00000	#	c,c1,c,hc
dihedral_coeff	9	0.71370	0.00000	0.26600	0.00000	-0.25450	0.00000	#	c,c1,c,oc
dihedral_coeff	10	0.71370	0.00000	0.26600	0.00000	-0.25450	0.00000	#	c,c1,c,oh
dihedral_coeff	11	-0.52030	0.00000	-0.30280	0.00000	-0.34500	0.00000	#	c,c1,oc,c
dihedral_coeff	12	0.00000	0.00000	0.03160	0.00000	-0.16810	0.00000	#	c,c3h,c,hc
dihedral_coeff	13	0.71370	0.00000	0.26600	0.00000	-0.25450	0.00000	#	c,c3h,c,o3e
dihedral_coeff	14	0.71370	0.00000	0.26600	0.00000	-0.25450	0.00000	#	c,c3h,c,oc
dihedral_coeff	15	-0.52030	0.00000	-0.30280	0.00000	-0.34500	0.00000	#	c,c3h,o3e,c
dihedral_coeff	16	0.53020	0.00000	0.00000	0.00000	-0.39660	0.00000	#	c,o3e,c3h,hc
dihedral_coeff	17	0.53020	0.00000	0.00000	0.00000	-0.39660	0.00000	#	c,oc,c1,hc
dihedral_coeff	18	0.00000	0.00000	0.05140	0.00000	-0.14300	0.00000	#	c1,c,c,c1
dihedral_coeff	19	0.00000	0.00000	0.03160	0.00000	-0.16810	0.00000	#	c1,c,c,hc
dihedral_coeff	20	0.00000	0.00000	0.03160	0.00000	-0.16810	0.00000	#	c1,c,c1,hc
dihedral_coeff	21	-0.52030	0.00000	-0.30280	0.00000	-0.34500	0.00000	#	c1,c,oc,c1
dihedral_coeff	22	0.00000	0.00000	0.00000	0.00000	0.13000	180.00000	#	c1,c,oh,h
dihedral_coeff	23	-0.52030	0.00000	-0.30280	0.00000	-0.34500	0.00000	#	c1,oc,c,c3h
dihedral_coeff	24	0.53020	0.00000	0.00000	0.00000	-0.39660	0.00000	#	c1,oc,c,hc
dihedral_coeff	25	0.53020	0.00000	0.00000	0.00000	-0.39660	0.00000	#	c3h,o3e,c,hc
dihedral_coeff	26	0.00000	0.00000	0.00000	0.00000	0.13000	180.00000	#	h,oh,c,hc
dihedral_coeff	27	-0.14320	0.00000	0.06170	0.00000	-0.10830	0.00000	#	hc,c,c,hc
dihedral_coeff	28	-0.14350	0.00000	0.25300	0.00000	-0.09050	0.00000	#	hc,c,c,oc
dihedral_coeff	29	-0.14320	0.00000	0.06170	0.00000	-0.10830	0.00000	#	hc,c,c1,hc
dihedral_coeff	30	-0.14350	0.00000	0.25300	0.00000	-0.09050	0.00000	#	hc,c,c1,oc
dihedral_coeff	31	-0.14320	0.00000	0.06170	0.00000	-0.10830	0.00000	#	hc,c,c3h,hc
dihedral_coeff	32	-0.14350	0.00000	0.25300	0.00000	-0.09050	0.00000	#	hc,c,c3h,o3e
dihedral_coeff	33	-0.14350	0.00000	0.25300	0.00000	-0.09050	0.00000	#	hc,c1,c,oc
dihedral_coeff	34	-0.14350	0.00000	0.25300	0.00000	-0.09050	0.00000	#	hc,c1,c,oh
dihedral_coeff	35	-0.14350	0.00000	0.25300	0.00000	-0.09050	0.00000	#	hc,c3h,c,o3e
dihedral_coeff	36	-0.14350	0.00000	0.25300	0.00000	-0.09050	0.00000	#	hc,c3h,c,oc
dihedral_coeff	37	-0.18200	0.00000	-0.10840	0.00000	-0.70470	0.00000	#	o3e,c3h,c,oc
dihedral_coeff	38	-0.18200	0.00000	-0.10840	0.00000	-0.70470	0.00000	#	oc,c,c1,oc
dihedral_coeff	39	-0.18200	0.00000	-0.10840	0.00000	-0.70470	0.00000	#	oc,c1,c,oh

# MiddleBondTorsion Coeffs

dihedral_coeff	1	mbt	-14.87900	-3.65810	-0.31380	1.53000	#	c,c,c,hc
dihedral_coeff	2	mbt	-21.88420	-7.67640	-0.68680	1.53000	#	c,c,c,oc
dihedral_coeff	3	mbt	-17.78700	-7.18770	0.00000	1.53000	#	c,c,c1,c
dihedral_coeff	4	mbt	-14.87900	-3.65810	-0.31380	1.53000	#	c,c,c1,hc
dihedral_coeff	5	mbt	-21.88420	-7.67640	-0.68680	1.53000	#	c,c,c1,oc
dihedral_coeff	6	mbt	-5.92880	-2.70070	-0.31750	1.42000	#	c,c,oc,c1
dihedral_coeff	7	mbt	-17.78700	-7.18770	0.00000	1.53000	#	c,c1,c,c1
dihedral_coeff	8	mbt	-14.87900	-3.65810	-0.31380	1.53000	#	c,c1,c,hc
dihedral_coeff	9	mbt	-21.88420	-7.67640	-0.68680	1.53000	#	c,c1,c,oc
dihedral_coeff	10	mbt	-21.88420	-7.67640	-0.68680	1.53000	#	c,c1,c,oh
dihedral_coeff	11	mbt	-5.92880	-2.70070	-0.31750	1.42000	#	c,c1,oc,c
dihedral_coeff	12	mbt	-14.87900	-3.65810	-0.31380	1.53000	#	c,c3h,c,hc
dihedral_coeff	13	mbt	-21.88420	-7.67640	-0.68680	1.53000	#	c,c3h,c,o3e
dihedral_coeff	14	mbt	-21.88420	-7.67640	-0.68680	1.53000	#	c,c3h,c,oc
dihedral_coeff	15	mbt	-5.92880	-2.70070	-0.31750	1.42000	#	c,c3h,o3e,c
dihedral_coeff	16	mbt	-6.80070	-4.65460	-1.41010	1.42000	#	c,o3e,c3h,hc
dihedral_coeff	17	mbt	-6.80070	-4.65460	-1.41010	1.42000	#	c,oc,c1,hc
dihedral_coeff	18	mbt	-17.78700	-7.18770	0.00000	1.53000	#	c1,c,c,c1
dihedral_coeff	19	mbt	-14.87900	-3.65810	-0.31380	1.53000	#	c1,c,c,hc
dihedral_coeff	20	mbt	-14.87900	-3.65810	-0.31380	1.53000	#	c1,c,c1,hc
dihedral_coeff	21	mbt	-5.92880	-2.70070	-0.31750	1.42000	#	c1,c,oc,c1
dihedral_coeff	22	mbt	0.00000	0.00000	0.00000	1.42000	#	c1,c,oh,h
dihedral_coeff	23	mbt	-5.92880	-2.70070	-0.31750	1.42000	#	c1,oc,c,c3h
dihedral_coeff	24	mbt	-6.80070	-4.65460	-1.41010	1.42000	#	c1,oc,c,hc
dihedral_coeff	25	mbt	-6.80070	-4.65460	-1.41010	1.42000	#	c3h,o3e,c,hc
dihedral_coeff	26	mbt	0.00000	0.00000	0.00000	1.42000	#	h,oh,c,hc
dihedral_coeff	27	mbt	-14.26100	-0.53220	-0.48640	1.53000	#	hc,c,c,hc
dihedral_coeff	28	mbt	-16.79750	-1.22960	-0.27500	1.53000	#	hc,c,c,oc
dihedral_coeff	29	mbt	-14.26100	-0.53220	-0.48640	1.53000	#	hc,c,c1,hc
dihedral_coeff	30	mbt	-16.79750	-1.22960	-0.27500	1.53000	#	hc,c,c1,oc
dihedral_coeff	31	mbt	-14.26100	-0.53220	-0.48640	1.53000	#	hc,c,c3h,hc
dihedral_coeff	32	mbt	-16.79750	-1.22960	-0.27500	1.53000	#	hc,c,c3h,o3e
dihedral_coeff	33	mbt	-16.79750	-1.22960	-0.27500	1.53000	#	hc,c1,c,oc
dihedral_coeff	34	mbt	-16.79750	-1.22960	-0.27500	1.53000	#	hc,c1,c,oh
dihedral_coeff	35	mbt	-16.79750	-1.22960	-0.27500	1.53000	#	hc,c3h,c,o3e
dihedral_coeff	36	mbt	-16.79750	-1.22960	-0.27500	1.53000	#	hc,c3h,c,oc
dihedral_coeff	37	mbt	-17.25850	-3.61570	-0.83640	1.53000	#	o3e,c3h,c,oc
dihedral_coeff	38	mbt	-17.25850	-3.61570	-0.83640	1.53000	#	oc,c,c1,oc
dihedral_coeff	39	mbt	-17.25850	-3.61570	-0.83640	1.53000	#	oc,c1,c,oh

# EndBondTorsion Coeffs

dihedral_coeff	1	ebt	0.08140	0.05910	0.22190	0.24860	0.24220	-0.09250	1.53000	1.10100	#	c,c,c,hc
dihedral_coeff	2	ebt	1.15380	0.84090	-0.91380	-0.31900	0.44110	-0.71740	1.53000	1.42000	#	c,c,c,oc
dihedral_coeff	3	ebt	-0.07320	0.00000	0.00000	-0.07320	0.00000	0.00000	1.53000	1.53000	#	c,c,c1,c
dihedral_coeff	4	ebt	0.08140	0.05910	0.22190	0.24860	0.24220	-0.09250	1.53000	1.10100	#	c,c,c1,hc
dihedral_coeff	5	ebt	1.15380	0.84090	-0.91380	-0.31900	0.44110	-0.71740	1.53000	1.42000	#	c,c,c1,oc
dihedral_coeff	6	ebt	0.47410	1.26350	0.55760	-0.24560	1.05170	-0.77950	1.53000	1.42000	#	c,c,oc,c1
dihedral_coeff	7	ebt	-0.07320	0.00000	0.00000	-0.07320	0.00000	0.00000	1.53000	1.53000	#	c,c1,c,c1
dihedral_coeff	8	ebt	0.08140	0.05910	0.22190	0.24860	0.24220	-0.09250	1.53000	1.10100	#	c,c1,c,hc
dihedral_coeff	9	ebt	1.15380	0.84090	-0.91380	-0.31900	0.44110	-0.71740	1.53000	1.42000	#	c,c1,c,oc
dihedral_coeff	10	ebt	-0.31900	0.44110	-0.71740	1.15380	0.84090	-0.91380	1.53000	1.42000	#	c,c1,c,oh
dihedral_coeff	11	ebt	-0.24560	1.05170	-0.77950	0.47410	1.26350	0.55760	1.53000	1.42000	#	c,c1,oc,c
dihedral_coeff	12	ebt	0.08140	0.05910	0.22190	0.24860	0.24220	-0.09250	1.53000	1.10100	#	c,c3h,c,hc
dihedral_coeff	13	ebt	-0.31900	0.44110	-0.71740	1.15380	0.84090	-0.91380	1.53000	1.42000	#	c,c3h,c,o3e
dihedral_coeff	14	ebt	1.15380	0.84090	-0.91380	-0.31900	0.44110	-0.71740	1.53000	1.42000	#	c,c3h,c,oc
dihedral_coeff	15	ebt	-0.24560	1.05170	-0.77950	0.47410	1.26350	0.55760	1.53000	1.42000	#	c,c3h,o3e,c
dihedral_coeff	16	ebt	-0.60540	1.33390	0.96480	-0.16200	0.15640	-1.14080	1.42000	1.10100	#	c,o3e,c3h,hc
dihedral_coeff	17	ebt	-0.60540	1.33390	0.96480	-0.16200	0.15640	-1.14080	1.42000	1.10100	#	c,oc,c1,hc
dihedral_coeff	18	ebt	-0.07320	0.00000	0.00000	-0.07320	0.00000	0.00000	1.53000	1.53000	#	c1,c,c,c1
dihedral_coeff	19	ebt	0.24860	0.24220	-0.09250	0.08140	0.05910	0.22190	1.53000	1.10100	#	c1,c,c,hc
dihedral_coeff	20	ebt	0.24860	0.24220	-0.09250	0.08140	0.05910	0.22190	1.53000	1.10100	#	c1,c,c1,hc
dihedral_coeff	21	ebt	0.47410	1.26350	0.55760	-0.24560	1.05170	-0.77950	1.53000	1.42000	#	c1,c,oc,c1
dihedral_coeff	22	ebt	0.00000	0.00000	0.00000	0.00000	0.00000	0.00000	1.53000	0.96000	#	c1,c,oh,h
dihedral_coeff	23	ebt	0.47410	1.26350	0.55760	-0.24560	1.05170	-0.77950	1.42000	1.53000	#	c1,oc,c,c3h
dihedral_coeff	24	ebt	-0.16200	0.15640	-1.14080	-0.60540	1.33390	0.96480	1.42000	1.10100	#	c1,oc,c,hc
dihedral_coeff	25	ebt	-0.60540	1.33390	0.96480	-0.16200	0.15640	-1.14080	1.42000	1.10100	#	c3h,o3e,c,hc
dihedral_coeff	26	ebt	0.00000	0.00000	0.00000	0.00000	0.00000	0.00000	0.96000	1.10100	#	h,oh,c,hc
dihedral_coeff	27	ebt	0.21300	0.31200	0.07770	0.21300	0.31200	0.07770	1.10100	1.10100	#	hc,c,c,hc
dihedral_coeff	28	ebt	0.96810	0.95510	0.04360	0.59030	0.66690	0.85840	1.10100	1.42000	#	hc,c,c,oc
dihedral_coeff	29	ebt	0.21300	0.31200	0.07770	0.21300	0.31200	0.07770	1.10100	1.10100	#	hc,c,c1,hc
dihedral_coeff	30	ebt	0.96810	0.95510	0.04360	0.59030	0.66690	0.85840	1.10100	1.42000	#	hc,c,c1,oc
dihedral_coeff	31	ebt	0.21300	0.31200	0.07770	0.21300	0.31200	0.07770	1.10100	1.10100	#	hc,c,c3h,hc
dihedral_coeff	32	ebt	0.96810	0.95510	0.04360	0.59030	0.66690	0.85840	1.10100	1.42000	#	hc,c,c3h,o3e
dihedral_coeff	33	ebt	0.96810	0.95510	0.04360	0.59030	0.66690	0.85840	1.10100	1.42000	#	hc,c1,c,oc
dihedral_coeff	34	ebt	0.96810	0.95510	0.04360	0.59030	0.66690	0.85840	1.10100	1.42000	#	hc,c1,c,oh
dihedral_coeff	35	ebt	0.96810	0.95510	0.04360	0.59030	0.66690	0.85840	1.10100	1.42000	#	hc,c3h,c,o3e
dihedral_coeff	36	ebt	0.96810	0.95510	0.04360	0.59030	0.66690	0.85840	1.10100	1.42000	#	hc,c3h,c,oc
dihedral_coeff	37	ebt	1.01650	0.75530	-0.46090	1.01650	0.75530	-0.46090	1.42000	1.42000	#	o3e,c3h,c,oc
dihedral_coeff	38	ebt	1.01650	0.75530	-0.46090	1.01650	0.75530	-0.46090	1.42000	1.42000	#	oc,c,c1,oc
dihedral_coeff	39	ebt	1.01650	0.75530	-0.46090	1.01650	0.75530	-0.46090	1.42000	1.42000	#	oc,c1,c,oh

# AngleTorsion Coeffs

dihedral_coeff	1	at	0.31130	0.45160	-0.19880	-0.24540	0.00000	-0.11360	112.67000	110.77000	#	c,c,c,hc
dihedral_coeff	2	at	0.96720	-0.75660	-1.23310	0.56230	-0.30410	-0.40150	112.67000	111.27000	#	c,c,c,oc
dihedral_coeff	3	at	0.38860	-0.31390	0.13890	0.38860	-0.31390	0.13890	112.67000	112.67000	#	c,c,c1,c
dihedral_coeff	4	at	0.31130	0.45160	-0.19880	-0.24540	0.00000	-0.11360	112.67000	110.77000	#	c,c,c1,hc
dihedral_coeff	5	at	0.96720	-0.75660	-1.23310	0.56230	-0.30410	-0.40150	112.67000	111.27000	#	c,c,c1,oc
dihedral_coeff	6	at	0.56760	0.94500	0.07030	-2.74660	1.48770	-0.89550	111.27000	104.50000	#	c,c,oc,c1
dihedral_coeff	7	at	0.38860	-0.31390	0.13890	0.38860	-0.31390	0.13890	112.67000	112.67000	#	c,c1,c,c1
dihedral_coeff	8	at	0.31130	0.45160	-0.19880	-0.24540	0.00000	-0.11360	112.67000	110.77000	#	c,c1,c,hc
dihedral_coeff	9	at	0.96720	-0.75660	-1.23310	0.56230	-0.30410	-0.40150	112.67000	111.27000	#	c,c1,c,oc
dihedral_coeff	10	at	0.56230	-0.30410	-0.40150	0.96720	-0.75660	-1.23310	112.67000	111.27000	#	c,c1,c,oh
dihedral_coeff	11	at	-2.74660	1.48770	-0.89550	0.56760	0.94500	0.07030	111.27000	104.50000	#	c,c1,oc,c
dihedral_coeff	12	at	0.31130	0.45160	-0.19880	-0.24540	0.00000	-0.11360	112.67000	110.77000	#	c,c3h,c,hc
dihedral_coeff	13	at	0.56230	-0.30410	-0.40150	0.96720	-0.75660	-1.23310	112.67000	111.27000	#	c,c3h,c,o3e
dihedral_coeff	14	at	0.96720	-0.75660	-1.23310	0.56230	-0.30410	-0.40150	112.67000	111.27000	#	c,c3h,c,oc
dihedral_coeff	15	at	-2.74660	1.48770	-0.89550	0.56760	0.94500	0.07030	111.27000	104.50000	#	c,c3h,o3e,c
dihedral_coeff	16	at	-1.82340	1.63930	0.51440	-0.77770	0.43400	-0.66530	104.50000	108.72800	#	c,o3e,c3h,hc
dihedral_coeff	17	at	-1.82340	1.63930	0.51440	-0.77770	0.43400	-0.66530	104.50000	108.72800	#	c,oc,c1,hc
dihedral_coeff	18	at	0.38860	-0.31390	0.13890	0.38860	-0.31390	0.13890	112.67000	112.67000	#	c1,c,c,c1
dihedral_coeff	19	at	-0.24540	0.00000	-0.11360	0.31130	0.45160	-0.19880	112.67000	110.77000	#	c1,c,c,hc
dihedral_coeff	20	at	-0.24540	0.00000	-0.11360	0.31130	0.45160	-0.19880	112.67000	110.77000	#	c1,c,c1,hc
dihedral_coeff	21	at	0.56760	0.94500	0.07030	-2.74660	1.48770	-0.89550	111.27000	104.50000	#	c1,c,oc,c1
dihedral_coeff	22	at	0.00000	0.00000	0.00000	0.00000	0.00000	0.00000	111.27000	109.00000	#	c1,c,oh,h
dihedral_coeff	23	at	0.56760	0.94500	0.07030	-2.74660	1.48770	-0.89550	104.50000	111.27000	#	c1,oc,c,c3h
dihedral_coeff	24	at	-0.77770	0.43400	-0.66530	-1.82340	1.63930	0.51440	104.50000	108.72800	#	c1,oc,c,hc
dihedral_coeff	25	at	-1.82340	1.63930	0.51440	-0.77770	0.43400	-0.66530	104.50000	108.72800	#	c3h,o3e,c,hc
dihedral_coeff	26	at	0.00000	0.00000	0.00000	0.00000	0.00000	0.00000	109.00000	108.72800	#	h,oh,c,hc
dihedral_coeff	27	at	-0.80850	0.55690	-0.24660	-0.80850	0.55690	-0.24660	110.77000	110.77000	#	hc,c,c,hc
dihedral_coeff	28	at	2.36680	2.49200	-1.01220	-0.18920	0.49180	0.72730	110.77000	111.27000	#	hc,c,c,oc
dihedral_coeff	29	at	-0.80850	0.55690	-0.24660	-0.80850	0.55690	-0.24660	110.77000	110.77000	#	hc,c,c1,hc
dihedral_coeff	30	at	2.36680	2.49200	-1.01220	-0.18920	0.49180	0.72730	110.77000	111.27000	#	hc,c,c1,oc
dihedral_coeff	31	at	-0.80850	0.55690	-0.24660	-0.80850	0.55690	-0.24660	110.77000	110.77000	#	hc,c,c3h,hc
dihedral_coeff	32	at	2.36680	2.49200	-1.01220	-0.18920	0.49180	0.72730	110.77000	111.27000	#	hc,c,c3h,o3e
dihedral_coeff	33	at	2.36680	2.49200	-1.01220	-0.18920	0.49180	0.72730	110.77000	111.27000	#	hc,c1,c,oc
dihedral_coeff	34	at	2.36680	2.49200	-1.01220	-0.18920	0.49180	0.72730	110.77000	111.27000	#	hc,c1,c,oh
dihedral_coeff	35	at	2.36680	2.49200	-1.01220	-0.18920	0.49180	0.72730	110.77000	111.27000	#	hc,c3h,c,o3e
dihedral_coeff	36	at	2.36680	2.49200	-1.01220	-0.18920	0.49180	0.72730	110.77000	111.27000	#	hc,c3h,c,oc
dihedral_coeff	37	at	0.55110	0.97370	-0.66730	0.55110	0.97370	-0.66730	111.27000	111.27000	#	o3e,c3h,c,oc
dihedral_coeff	38	at	0.55110	0.97370	-0.66730	0.55110	0.97370	-0.66730	111.27000	111.27000	#	oc,c,c1,oc
dihedral_coeff	39	at	0.55110	0.97370	-0.66730	0.55110	0.97370	-0.66730	111.27000	111.27000	#	oc,c1,c,oh

# AngleAngleTorsion Coeffs

dihedral_coeff	1	aat	-16.16400	112.67000	110.77000	#	c,c,c,hc
dihedral_coeff	2	aat	-29.04200	112.67000	111.27000	#	c,c,c,oc
dihedral_coeff	3	aat	-22.04500	112.67000	112.67000	#	c,c,c1,c
dihedral_coeff	4	aat	-16.16400	112.67000	110.77000	#	c,c,c1,hc
dihedral_coeff	5	aat	-29.04200	112.67000	111.27000	#	c,c,c1,oc
dihedral_coeff	6	aat	-19.00590	111.27000	104.50000	#	c,c,oc,c1
dihedral_coeff	7	aat	-22.04500	112.67000	112.67000	#	c,c1,c,c1
dihedral_coeff	8	aat	-16.16400	112.67000	110.77000	#	c,c1,c,hc
dihedral_coeff	9	aat	-29.04200	112.67000	111.27000	#	c,c1,c,oc
dihedral_coeff	10	aat	-29.04200	112.67000	111.27000	#	c,c1,c,oh
dihedral_coeff	11	aat	-19.00590	111.27000	104.50000	#	c,c1,oc,c
dihedral_coeff	12	aat	-16.16400	112.67000	110.77000	#	c,c3h,c,hc
dihedral_coeff	13	aat	-29.04200	112.67000	111.27000	#	c,c3h,c,o3e
dihedral_coeff	14	aat	-29.04200	112.67000	111.27000	#	c,c3h,c,oc
dihedral_coeff	15	aat	-19.00590	111.27000	104.50000	#	c,c3h,o3e,c
dihedral_coeff	16	aat	-16.44380	104.50000	108.72800	#	c,o3e,c3h,hc
dihedral_coeff	17	aat	-16.44380	104.50000	108.72800	#	c,oc,c1,hc
dihedral_coeff	18	aat	-22.04500	112.67000	112.67000	#	c1,c,c,c1
dihedral_coeff	19	aat	-16.16400	112.67000	110.77000	#	c1,c,c,hc
dihedral_coeff	20	aat	-16.16400	112.67000	110.77000	#	c1,c,c1,hc
dihedral_coeff	21	aat	-19.00590	111.27000	104.50000	#	c1,c,oc,c1
dihedral_coeff	22	aat	0.00000	111.27000	109.00000	#	c1,c,oh,h
dihedral_coeff	23	aat	-19.00590	104.50000	111.27000	#	c1,oc,c,c3h
dihedral_coeff	24	aat	-16.44380	104.50000	108.72800	#	c1,oc,c,hc
dihedral_coeff	25	aat	-16.44380	104.50000	108.72800	#	c3h,o3e,c,hc
dihedral_coeff	26	aat	0.00000	109.00000	108.72800	#	h,oh,c,hc
dihedral_coeff	27	aat	-12.56400	110.77000	110.77000	#	hc,c,c,hc
dihedral_coeff	28	aat	-20.20060	110.77000	111.27000	#	hc,c,c,oc
dihedral_coeff	29	aat	-12.56400	110.77000	110.77000	#	hc,c,c1,hc
dihedral_coeff	30	aat	-20.20060	110.77000	111.27000	#	hc,c,c1,oc
dihedral_coeff	31	aat	-12.56400	110.77000	110.77000	#	hc,c,c3h,hc
dihedral_coeff	32	aat	-20.20060	110.77000	111.27000	#	hc,c,c3h,o3e
dihedral_coeff	33	aat	-20.20060	110.77000	111.27000	#	hc,c1,c,oc
dihedral_coeff	34	aat	-20.20060	110.77000	111.27000	#	hc,c1,c,oh
dihedral_coeff	35	aat	-20.20060	110.77000	111.27000	#	hc,c3h,c,o3e
dihedral_coeff	36	aat	-20.20060	110.77000	111.27000	#	hc,c3h,c,oc
dihedral_coeff	37	aat	-14.04840	111.27000	111.27000	#	o3e,c3h,c,oc
dihedral_coeff	38	aat	-14.04840	111.27000	111.27000	#	oc,c,c1,oc
dihedral_coeff	39	aat	-14.04840	111.27000	111.27000	#	oc,c1,c,oh

# BondBond13 Coeffs

dihedral_coeff	1	bb13	0.00000	1.53000	1.10100	#	c,c,c,hc
dihedral_coeff	2	bb13	0.00000	1.53000	1.42000	#	c,c,c,oc
dihedral_coeff	3	bb13	0.00000	1.53000	1.53000	#	c,c,c1,c
dihedral_coeff	4	bb13	0.00000	1.53000	1.10100	#	c,c,c1,hc
dihedral_coeff	5	bb13	0.00000	1.53000	1.42000	#	c,c,c1,oc
dihedral_coeff	6	bb13	0.00000	1.53000	1.42000	#	c,c,oc,c1
dihedral_coeff	7	bb13	0.00000	1.53000	1.53000	#	c,c1,c,c1
dihedral_coeff	8	bb13	0.00000	1.53000	1.10100	#	c,c1,c,hc
dihedral_coeff	9	bb13	0.00000	1.53000	1.42000	#	c,c1,c,oc
dihedral_coeff	10	bb13	0.00000	1.53000	1.42000	#	c,c1,c,oh
dihedral_coeff	11	bb13	0.00000	1.53000	1.42000	#	c,c1,oc,c
dihedral_coeff	12	bb13	0.00000	1.53000	1.10100	#	c,c3h,c,hc
dihedral_coeff	13	bb13	0.00000	1.53000	1.42000	#	c,c3h,c,o3e
dihedral_coeff	14	bb13	0.00000	1.53000	1.42000	#	c,c3h,c,oc
dihedral_coeff	15	bb13	0.00000	1.53000	1.42000	#	c,c3h,o3e,c
dihedral_coeff	16	bb13	0.00000	1.42000	1.10100	#	c,o3e,c3h,hc
dihedral_coeff	17	bb13	0.00000	1.42000	1.10100	#	c,oc,c1,hc
dihedral_coeff	18	bb13	0.00000	1.53000	1.53000	#	c1,c,c,c1
dihedral_coeff	19	bb13	0.00000	1.53000	1.10100	#	c1,c,c,hc
dihedral_coeff	20	bb13	0.00000	1.53000	1.10100	#	c1,c,c1,hc
dihedral_coeff	21	bb13	0.00000	1.53000	1.42000	#	c1,c,oc,c1
dihedral_coeff	22	bb13	0.00000	1.53000	0.96000	#	c1,c,oh,h
dihedral_coeff	23	bb13	0.00000	1.42000	1.53000	#	c1,oc,c,c3h
dihedral_coeff	24	bb13	0.00000	1.42000	1.10100	#	c1,oc,c,hc
dihedral_coeff	25	bb13	0.00000	1.42000	1.10100	#	c3h,o3e,c,hc
dihedral_coeff	26	bb13	0.00000	0.96000	1.10100	#	h,oh,c,hc
dihedral_coeff	27	bb13	0.00000	1.10100	1.10100	#	hc,c,c,hc
dihedral_coeff	28	bb13	0.00000	1.10100	1.42000	#	hc,c,c,oc
dihedral_coeff	29	bb13	0.00000	1.10100	1.10100	#	hc,c,c1,hc
dihedral_coeff	30	bb13	0.00000	1.10100	1.42000	#	hc,c,c1,oc
dihedral_coeff	31	bb13	0.00000	1.10100	1.10100	#	hc,c,c3h,hc
dihedral_coeff	32	bb13	0.00000	1.10100	1.42000	#	hc,c,c3h,o3e
dihedral_coeff	33	bb13	0.00000	1.10100	1.42000	#	hc,c1,c,oc
dihedral_coeff	34	bb13	0.00000	1.10100	1.42000	#	hc,c1,c,oh
dihedral_coeff	35	bb13	0.00000	1.10100	1.42000	#	hc,c3h,c,o3e
dihedral_coeff	36	bb13	0.00000	1.10100	1.42000	#	hc,c3h,c,oc
dihedral_coeff	37	bb13	0.00000	1.42000	1.42000	#	o3e,c3h,c,oc
dihedral_coeff	38	bb13	0.00000	1.42000	1.42000	#	oc,c,c1,oc
dihedral_coeff	39	bb13	0.00000	1.42000	1.42000	#	oc,c1,c,oh

# Improper Coeffs

improper_coeff	1	0.00000	0.00000	#	c,c,c,hc
improper_coeff	2	0.00000	0.00000	#	c,c,c1,hc
improper_coeff	3	0.00000	0.00000	#	c,c,hc,c1
improper_coeff	4	0.00000	0.00000	#	c,c,hc,hc
improper_coeff	5	0.00000	0.00000	#	c,c,hc,oc
improper_coeff	6	0.00000	0.00000	#	c,c,oc,hc
improper_coeff	7	0.00000	0.00000	#	c,c1,c1,hc
improper_coeff	8	0.00000	0.00000	#	c,c1,hc,hc
improper_coeff	9	0.00000	0.00000	#	c,c1,hc,oc
improper_coeff	10	0.00000	0.00000	#	c,c1,oh,hc
improper_coeff	11	0.00000	0.00000	#	c,c3h,hc,hc
improper_coeff	12	0.00000	0.00000	#	c,c3h,hc,o3e
improper_coeff	13	0.00000	0.00000	#	c,c3h,hc,oc
improper_coeff	14	0.00000	0.00000	#	c,hc,hc,o3e
improper_coeff	15	0.00000	0.00000	#	c,hc,hc,oc
improper_coeff	16	0.00000	0.00000	#	c,hc,hc,oh
improper_coeff	17	0.00000	0.00000	#	c1,c,c,c
improper_coeff	18	0.00000	0.00000	#	c1,c,c,hc
improper_coeff	19	0.00000	0.00000	#	c1,c,c,oc
improper_coeff	20	0.00000	0.00000	#	c1,c,hc,oc
improper_coeff	21	0.00000	0.00000	#	c1,c,oc,hc
improper_coeff	22	0.00000	0.00000	#	c3h,c,c,hc
improper_coeff	23	0.00000	0.00000	#	c3h,c,c,o3e
improper_coeff	24	0.00000	0.00000	#	c3h,c,o3e,hc
improper_coeff	25	0.00000	0.00000	#	c,c1,oc,hc

# AngleAngle Coeffs

improper_coeff	1	aa	0.00000	0.00000	0.11840	112.67000	110.77000	110.77000	#	c,c,c,hc
improper_coeff	2	aa	0.00000	-1.31990	0.00000	112.67000	110.77000	110.77000	#	c,c,c1,hc
improper_coeff	3	aa	0.00000	-1.31990	0.00000	110.77000	112.67000	110.77000	#	c,c,hc,c1
improper_coeff	4	aa	0.00000	-0.48250	0.00000	110.77000	110.77000	107.66000	#	c,c,hc,hc
improper_coeff	5	aa	0.00000	2.59260	0.00000	110.77000	111.27000	108.72800	#	c,c,hc,oc
improper_coeff	6	aa	0.00000	2.59260	0.00000	111.27000	110.77000	108.72800	#	c,c,oc,hc
improper_coeff	7	aa	-1.31990	-1.31990	0.11840	112.67000	110.77000	110.77000	#	c,c1,c1,hc
improper_coeff	8	aa	0.27380	-0.48250	0.27380	110.77000	110.77000	107.66000	#	c,c1,hc,hc
improper_coeff	9	aa	3.91770	2.59260	0.16890	110.77000	111.27000	108.72800	#	c,c1,hc,oc
improper_coeff	10	aa	0.16890	2.59260	3.91770	111.27000	110.77000	108.72800	#	c,c1,oh,hc
improper_coeff	11	aa	0.00000	-0.48250	0.00000	110.77000	110.77000	107.66000	#	c,c3h,hc,hc
improper_coeff	12	aa	3.91770	2.59260	0.00000	110.77000	111.27000	108.72800	#	c,c3h,hc,o3e
improper_coeff	13	aa	0.00000	2.59260	0.00000	110.77000	111.27000	108.72800	#	c,c3h,hc,oc
improper_coeff	14	aa	2.42590	2.42590	2.12830	107.66000	108.72800	108.72800	#	c,hc,hc,o3e
improper_coeff	15	aa	2.42590	2.42590	2.12830	107.66000	108.72800	108.72800	#	c,hc,hc,oc
improper_coeff	16	aa	2.42590	2.42590	2.12830	107.66000	108.72800	108.72800	#	c,hc,hc,oh
improper_coeff	17	aa	-0.17290	-0.17290	-0.17290	112.67000	112.67000	112.67000	#	c1,c,c,c
improper_coeff	18	aa	0.00000	0.00000	0.11840	112.67000	110.77000	110.77000	#	c1,c,c,hc
improper_coeff	19	aa	0.00000	0.00000	-3.57440	112.67000	111.27000	111.27000	#	c1,c,c,oc
improper_coeff	20	aa	0.00000	2.59260	0.00000	110.77000	111.27000	108.72800	#	c1,c,hc,oc
improper_coeff	21	aa	0.00000	2.59260	0.00000	111.27000	110.77000	108.72800	#	c1,c,oc,hc
improper_coeff	22	aa	0.00000	0.00000	0.11840	112.67000	110.77000	110.77000	#	c3h,c,c,hc
improper_coeff	23	aa	-0.83300	-0.83300	-3.57440	112.67000	111.27000	111.27000	#	c3h,c,c,o3e
improper_coeff	24	aa	0.00000	2.59260	3.91770	111.27000	110.77000	108.72800	#	c3h,c,o3e,hc
improper_coeff	25	aa	0.16890	2.59260	3.91770	111.27000	110.77000	108.72800	#	c,c1,oc,hc

# ------------------------------- OPT Section -------------------------------
minimize 1.0e-5 1.0e-7 100000 400000
Generated 28 of 28 mixed pair_coeff terms from sixthpower/geometric mixing rule
Step          Temp          E_pair         E_mol          TotEng         Press
0   0             -907.99548      20556.055      19648.06      -2630.8351
Loop time of 1.00692 on 6 procs for 41 steps with 4972 atoms

Minimization stats:
  Stopping criterion = energy tolerance
  Energy initial, next-to-last, final =
  Force two-norm initial, final = 2771.4396 6435.6084
  Force max component initial, final = 884.88462 3880.3803
  Final line search alpha, max atom move = 8.6221006e-08 0.0003345703
  Iterations, force evaluations = 41 139

# ------------------------------- Run Section -------------------------------
#

thermo_style custom step temp pe evdwl ecoul ebond eangle edihed eimp density vol
thermo          100

fix Langevin  all langevin 300 300 100.0 482432
fix moveLimit all nve/limit 0.1
run 20000
Generated 28 of 28 mixed pair_coeff terms from sixthpower/geometric mixing rule
Step          Temp          PotEng         E_vdwl         E_coul         E_bond        E_angle        E_dihed        E_impro        Density         Volume
41   0              15090.9       -507.23992     -804.6102       379.6825       20602.442     -4489.4846     -89.890451      0.44999999     107839.01
Averages over the last 101 of 202 rows, steps 10100 to 20041:
Temp PotEng E_vdwl E_coul E_bond E_angle E_dihed E_impro Density Volume
299.788 15941.9 -1189.5 -1007.54 1951.39 21210.7 -4896.54 -126.574 0.45 107839
Loop time of 122.483 on 6 procs for 20000 steps with 4972 atoms

unfix Langevin
unfix moveLimit

fix 		relax all npt temp 300.0 300.0 100 iso 1.0 1.0 1000
run 10000
Generated 28 of 28 mixed pair_coeff terms from sixthpower/geometric mixing rule
Step          Temp          PotEng         E_vdwl         E_coul         E_bond        E_angle        E_dihed        E_impro        Density         Volume
20041   295.26907      15952.907     -1252.1327     -969.86328      1978.479       21230.644     -4906.3658     -127.85398      0.44999999     107839.01
Averages over the last 51 of 102 rows, steps 25100 to 30041:
Temp PotEng E_vdwl E_coul E_bond E_angle E_dihed E_impro Density Volume
300.958 15167.4 -1686.54 -1060.9 1857.24 21181.8 -4995.78 -128.376 0.697883 69867.3
Loop time of 87.1391 on 6 procs for 10000 steps with 4972 atoms

unfix relax

molecule 	pre cleaned_pre-mol
Read molecule template pre:
  1 molecules
  0 fragments
  24 atoms with max type 7
  23 bonds with max type 11
  40 angles with max type 26
  48 dihedrals with max type 37
  24 impropers with max type 24
molecule	post cleaned_post-mol
Read molecule template post:
  1 molecules
  0 fragments
  24 atoms with max type 7
  23 bonds with max type 9
  40 angles with max type 25
  51 dihedrals with max type 38
  24 impropers with max type 25

fix		fxrct all bond/react stabilization yes statted_grp .03 		 react rxn1 all 100 0.0 10.0 pre post semi.map stabilize_steps 1000 molecule inter
dynamic group bond_react_MASTER_group defined
dynamic group statted_grp_REACT defined
fix 		1 statted_grp_REACT npt temp 300.0 300.0 100 iso 1.0 1.0 1000

fix 		4 bond_react_MASTER_group temp/rescale 1 300.0 300.0 1 1

thermo_style custom step temp pe evdwl ecoul ebond eangle edihed eimp density vol f_fxrct[1]
thermo          100

compute 1 all property/local btype batom1 batom2

compute 2 all stress/atom NULL
fix 5 all ave/atom 1 500 1000 c_2[*]

dump DumpPos all custom 1000 dump.pos id type x y z mol  f_5[*]
dump DumpBond all local 1000 bonds.dump index c_1[*]

run 200000

CITE-CITE-CITE-CITE-CITE-CITE-CITE-CITE-CITE-CITE-CITE-CITE-CITE

Your simulation uses code contributions which should be cited:

- fix bond/react: reacter.org doi:10.1016/j.polymer.2017.09.038, doi:10.1021/acs.macromol.0c02012

@Article{Gissinger17,
 author = {J. R. Gissinger and B. D. Jensen and K. E. Wise},
 title = {Modeling Chemical Reactions in Classical Molecular Dynamics Simulations},
 journal = {Polymer},
 year =    2017,
 volume =  128,
 pages =   {211--217}
}

@Article{Gissinger20,
 author = {J. R. Gissinger, B. D. Jensen, K. E. Wise},
 title = {{REACTER}: A Heuristic Method for Reactive Molecular Dynamics},
 journal = {Macromolecules},
 year =    2020,
 volume =  53,
 number =  22,
 pages =   {9953--9961}
}

CITE-CITE-CITE-CITE-CITE-CITE-CITE-CITE-CITE-CITE-CITE-CITE-CITE

Generated 28 of 28 mixed pair_coeff terms from sixthpower/geometric mixing rule
Step          Temp          PotEng         E_vdwl         E_coul         E_bond        E_angle        E_dihed        E_impro        Density         Volume       f_fxrct[1]
30041   298.54004      14851.572     -1780.7068     -1164.5422      1853.9413      21104.763     -5029.2062     -132.67758      0.77163472     62889.284      0
Averages over the last 50 of 99 rows, steps 34900 to 39800:
Temp PotEng E_vdwl E_coul E_bond E_angle E_dihed E_impro Density Volume f_fxrct[1]
300.935 29512.7 -1788.84 -1187.9 19000.5 18714 -5113.27 -111.664 0.993332 48889.9 22.64
