LAMMPS (22 Dec 2022)
# PREREQUISITES:
#
#     You must use moltemplate.sh to create 3 files:
#        system.data  system.in.init  system.in.settings
#     (Follow the instructions in README_setup.sh,
#      or run the file as a script using ./README_setup.sh)

# ------------------------------- Initialization Section --------------------

units real
atom_style full
pair_style lj/class2/coul/cut 10.0
bond_style class2
angle_style class2
dihedral_style class2
improper_style class2

# ------------------------------- Atom Definition Section -------------------

read_data       "pre_mol.data" extra/bond/per/atom 1 extra/angle/per/atom 12 extra/dihedral/per/atom 12 extra/improper/per/atom 12 extra/special/per/atom 12
Reading data file ...
  orthogonal box = (0 0 0) to (20.176428 20.176428 20.176428)
  reading atoms ...
  74 atoms
  scanning bonds ...
  scanning angles ...
  scanning dihedrals ...
  scanning impropers ...
  reading bonds ...
  85 bonds
  reading angles ...
  186 angles
  reading dihedrals ...
  345 dihedrals
  reading impropers ...
  120 impropers
Finding 1-2 1-3 1-4 neighbors ...
     4 = max # of 1-2 neighbors
     9 = max # of 1-3 neighbors
    25 = max # of 1-4 neighbors
    36 = max # of special neighbors

include calc.pram

# Masses

mass		1    12.01115  # c
mass		2    12.01115  # c1
mass		3    12.01115  # c3h
mass		4     1.00797  # h
mass		5     1.00797  # hc
mass		6    15.99940  # o3e
mass		7    15.99940  # oc
mass		8    15.99940  # oh

# Potentials

pair_coeff	 1  1    0.05400    4.01000  # c,c
pair_coeff	 2  2    0.05400    4.01000  # c1,c1
pair_coeff	 3  3    0.05400    4.01000  # c3h,c3h
pair_coeff	 4  4    0.02000    2.99500  # h,h
pair_coeff	 5  5    0.02000    2.99500  # hc,hc
pair_coeff	 6  6    0.24000    3.53500  # o3e,o3e
pair_coeff	 7  7    0.24000    3.53500  # oc,oc
pair_coeff	 8  8    0.24000    3.53500  # oh,oh

# Bond Coeffs

bond_coeff	 1    1.53000  299.67000 -501.77000  679.81000  # c,c
bond_coeff	 2    1.53000  299.67000 -501.77000  679.81000  # c,c1
bond_coeff	 3    1.53000  299.67000 -501.77000  679.81000  # c,c3h
bond_coeff	 4    1.10100  345.00000 -691.89000  844.60000  # c,hc
bond_coeff	 5    1.53000  299.67000 -501.77000  679.81000  # c1,c1
bond_coeff	 6    1.53000  299.67000 -501.77000  679.81000  # c1,c3h
bond_coeff	 7    1.10100  345.00000 -691.89000  844.60000  # c1,hc
bond_coeff	 8    1.42000  400.39540 -835.19510 1313.01420  # c1,o3e
bond_coeff	 9    1.42000  400.39540 -835.19510 1313.01420  # c1,oc
bond_coeff	10    1.42000  400.39540 -835.19510 1313.01420  # c1,oh
bond_coeff	11    1.53000  299.67000 -501.77000  679.81000  # c3h,c3h
bond_coeff	12    1.10100  345.00000 -691.89000  844.60000  # c3h,hc
bond_coeff	13    1.42000  400.39540 -835.19510 1313.01420  # c3h,o3e
bond_coeff	14    0.96000  493.84800    0.00000    0.00000  # h,oh

# Angle Coeffs

angle_coeff	 1  112.67000   39.51600   -7.44300   -9.55830  # c,c,c1
angle_coeff	 2  110.77000   41.45300  -10.60400    5.12900  # c,c,hc
angle_coeff	 3  112.67000   39.51600   -7.44300   -9.55830  # c,c1,c
angle_coeff	 4  112.67000   39.51600   -7.44300   -9.55830  # c,c1,c1
angle_coeff	 5  110.77000   41.45300  -10.60400    5.12900  # c,c1,hc
angle_coeff	 6  111.27000   54.53810   -8.36420  -13.08380  # c,c1,o3e
angle_coeff	 7  111.27000   54.53810   -8.36420  -13.08380  # c,c1,oc
angle_coeff	 8  112.67000   39.51600   -7.44300   -9.55830  # c,c3h,c3h
angle_coeff	 9  110.77000   41.45300  -10.60400    5.12900  # c,c3h,hc
angle_coeff	10  111.27000   54.53810   -8.36420  -13.08380  # c,c3h,o3e
angle_coeff	11  112.67000   39.51600   -7.44300   -9.55830  # c1,c,c1
angle_coeff	12  112.67000   39.51600   -7.44300   -9.55830  # c1,c,c3h
angle_coeff	13  110.77000   41.45300  -10.60400    5.12900  # c1,c,hc
angle_coeff	14  112.67000   39.51600   -7.44300   -9.55830  # c1,c1,c1
angle_coeff	15  112.67000   39.51600   -7.44300   -9.55830  # c1,c1,c3h
angle_coeff	16  110.77000   41.45300  -10.60400    5.12900  # c1,c1,hc
angle_coeff	17  111.27000   54.53810   -8.36420  -13.08380  # c1,c1,o3e
angle_coeff	18  111.27000   54.53810   -8.36420  -13.08380  # c1,c1,oc
angle_coeff	19  111.27000   54.53810   -8.36420  -13.08380  # c1,c1,oh
angle_coeff	20  112.67000   39.51600   -7.44300   -9.55830  # c1,c3h,c3h
angle_coeff	21  110.77000   41.45300  -10.60400    5.12900  # c1,c3h,hc
angle_coeff	22  111.27000   54.53810   -8.36420  -13.08380  # c1,c3h,o3e
angle_coeff	23  104.50000   35.74540  -10.00670   -6.27290  # c1,o3e,c1
angle_coeff	24  104.50000   35.74540  -10.00670   -6.27290  # c1,oc,c1
angle_coeff	25  109.00000   58.50000    0.00000    0.00000  # c1,oh,h
angle_coeff	26  110.77000   41.45300  -10.60400    5.12900  # c3h,c,hc
angle_coeff	27  110.77000   41.45300  -10.60400    5.12900  # c3h,c1,hc
angle_coeff	28  110.77000   41.45300  -10.60400    5.12900  # c3h,c3h,hc
angle_coeff	29  111.27000   54.53810   -8.36420  -13.08380  # c3h,c3h,o3e
angle_coeff	30  104.50000   35.74540  -10.00670   -6.27290  # c3h,o3e,c3h
angle_coeff	31  107.66000   39.64100  -12.92100   -2.43180  # hc,c,hc
angle_coeff	32  108.72800   58.54460  -10.80880  -12.40060  # hc,c1,o3e
angle_coeff	33  108.72800   58.54460  -10.80880  -12.40060  # hc,c1,oc
angle_coeff	34  108.72800   58.54460  -10.80880  -12.40060  # hc,c1,oh
angle_coeff	35  108.72800   58.54460  -10.80880  -12.40060  # hc,c3h,o3e

# BondBond Coeffs

angle_coeff	 1 bb    0.00000    1.53000    1.53000  # c,c,c1
angle_coeff	 2 bb    3.38720    1.53000    1.10100  # c,c,hc
angle_coeff	 3 bb    0.00000    1.53000    1.53000  # c,c1,c
angle_coeff	 4 bb    0.00000    1.53000    1.53000  # c,c1,c1
angle_coeff	 5 bb    3.38720    1.53000    1.10100  # c,c1,hc
angle_coeff	 6 bb   11.43180    1.53000    1.42000  # c,c1,o3e
angle_coeff	 7 bb   11.43180    1.53000    1.42000  # c,c1,oc
angle_coeff	 8 bb    0.00000    1.53000    1.53000  # c,c3h,c3h
angle_coeff	 9 bb    3.38720    1.53000    1.10100  # c,c3h,hc
angle_coeff	10 bb   11.43180    1.53000    1.42000  # c,c3h,o3e
angle_coeff	11 bb    0.00000    1.53000    1.53000  # c1,c,c1
angle_coeff	12 bb    0.00000    1.53000    1.53000  # c1,c,c3h
angle_coeff	13 bb    3.38720    1.53000    1.10100  # c1,c,hc
angle_coeff	14 bb    0.00000    1.53000    1.53000  # c1,c1,c1
angle_coeff	15 bb    0.00000    1.53000    1.53000  # c1,c1,c3h
angle_coeff	16 bb    3.38720    1.53000    1.10100  # c1,c1,hc
angle_coeff	17 bb   11.43180    1.53000    1.42000  # c1,c1,o3e
angle_coeff	18 bb   11.43180    1.53000    1.42000  # c1,c1,oc
angle_coeff	19 bb   11.43180    1.53000    1.42000  # c1,c1,oh
angle_coeff	20 bb    0.00000    1.53000    1.53000  # c1,c3h,c3h
angle_coeff	21 bb    3.38720    1.53000    1.10100  # c1,c3h,hc
angle_coeff	22 bb   11.43180    1.53000    1.42000  # c1,c3h,o3e
angle_coeff	23 bb   -7.11310    1.42000    1.42000  # c1,o3e,c1
angle_coeff	24 bb   -7.11310    1.42000    1.42000  # c1,oc,c1
angle_coeff	25 bb    0.00000    1.42000    0.96000  # c1,oh,h
angle_coeff	26 bb    3.38720    1.53000    1.10100  # c3h,c,hc
angle_coeff	27 bb    3.38720    1.53000    1.10100  # c3h,c1,hc
angle_coeff	28 bb    3.38720    1.53000    1.10100  # c3h,c3h,hc
angle_coeff	29 bb   11.43180    1.53000    1.42000  # c3h,c3h,o3e
angle_coeff	30 bb   -7.11310    1.42000    1.42000  # c3h,o3e,c3h
angle_coeff	31 bb    5.33160    1.10100    1.10100  # hc,c,hc
angle_coeff	32 bb   23.19790    1.10100    1.42000  # hc,c1,o3e
angle_coeff	33 bb   23.19790    1.10100    1.42000  # hc,c1,oc
angle_coeff	34 bb   23.19790    1.10100    1.42000  # hc,c1,oh
angle_coeff	35 bb   23.19790    1.10100    1.42000  # hc,c3h,o3e

# BondAngle Coeffs

angle_coeff	 1 ba    8.01600    8.01600    1.53000    1.53000  # c,c,c1
angle_coeff	 2 ba   11.42100   20.75400    1.53000    1.10100  # c,c,hc
angle_coeff	 3 ba    8.01600    8.01600    1.53000    1.53000  # c,c1,c
angle_coeff	 4 ba    8.01600    8.01600    1.53000    1.53000  # c,c1,c1
angle_coeff	 5 ba   11.42100   20.75400    1.53000    1.10100  # c,c1,hc
angle_coeff	 6 ba    2.68680   20.40330    1.53000    1.42000  # c,c1,o3e
angle_coeff	 7 ba   20.40330    2.68680    1.53000    1.42000  # c,c1,oc
angle_coeff	 8 ba    8.01600    8.01600    1.53000    1.53000  # c,c3h,c3h
angle_coeff	 9 ba   11.42100   20.75400    1.53000    1.10100  # c,c3h,hc
angle_coeff	10 ba    2.68680   20.40330    1.53000    1.42000  # c,c3h,o3e
angle_coeff	11 ba    8.01600    8.01600    1.53000    1.53000  # c1,c,c1
angle_coeff	12 ba    8.01600    8.01600    1.53000    1.53000  # c1,c,c3h
angle_coeff	13 ba   20.75400   11.42100    1.53000    1.10100  # c1,c,hc
angle_coeff	14 ba    8.01600    8.01600    1.53000    1.53000  # c1,c1,c1
angle_coeff	15 ba    8.01600    8.01600    1.53000    1.53000  # c1,c1,c3h
angle_coeff	16 ba   20.75400   11.42100    1.53000    1.10100  # c1,c1,hc
angle_coeff	17 ba    2.68680   20.40330    1.53000    1.42000  # c1,c1,o3e
angle_coeff	18 ba    2.68680   20.40330    1.53000    1.42000  # c1,c1,oc
angle_coeff	19 ba   20.40330    2.68680    1.53000    1.42000  # c1,c1,oh
angle_coeff	20 ba    8.01600    8.01600    1.53000    1.53000  # c1,c3h,c3h
angle_coeff	21 ba   20.75400   11.42100    1.53000    1.10100  # c1,c3h,hc
angle_coeff	22 ba    2.68680   20.40330    1.53000    1.42000  # c1,c3h,o3e
angle_coeff	23 ba   -2.81120   -2.81120    1.42000    1.42000  # c1,o3e,c1
angle_coeff	24 ba   -2.81120   -2.81120    1.42000    1.42000  # c1,oc,c1
angle_coeff	25 ba    0.00000    0.00000    1.42000    0.96000  # c1,oh,h
angle_coeff	26 ba   11.42100   20.75400    1.53000    1.10100  # c3h,c,hc
angle_coeff	27 ba   11.42100   20.75400    1.53000    1.10100  # c3h,c1,hc
angle_coeff	28 ba   11.42100   20.75400    1.53000    1.10100  # c3h,c3h,hc
angle_coeff	29 ba   20.40330    2.68680    1.53000    1.42000  # c3h,c3h,o3e
angle_coeff	30 ba   -2.81120   -2.81120    1.42000    1.42000  # c3h,o3e,c3h
angle_coeff	31 ba   18.10300   18.10300    1.10100    1.10100  # hc,c,hc
angle_coeff	32 ba    4.61890   55.32700    1.10100    1.42000  # hc,c1,o3e
angle_coeff	33 ba    4.61890   55.32700    1.10100    1.42000  # hc,c1,oc
angle_coeff	34 ba   55.32700    4.61890    1.10100    1.42000  # hc,c1,oh
angle_coeff	35 ba    4.61890   55.32700    1.10100    1.42000  # hc,c3h,o3e

# Dihedral Coeffs

dihedral_coeff	 1    0.00000    0.00000    0.05140    0.00000   -0.14300    0.00000  # c,c,c1,c1
dihedral_coeff	 2    0.00000    0.00000    0.03160    0.00000   -0.16810    0.00000  # c,c,c1,hc
dihedral_coeff	 3    0.71370    0.00000    0.26600    0.00000   -0.25450    0.00000  # c,c,c1,oc
dihedral_coeff	 4    0.00000    0.00000    0.05140    0.00000   -0.14300    0.00000  # c,c1,c,c1
dihedral_coeff	 5    0.00000    0.00000    0.03160    0.00000   -0.16810    0.00000  # c,c1,c,hc
dihedral_coeff	 6    0.00000    0.00000    0.05140    0.00000   -0.14300    0.00000  # c,c1,c1,c
dihedral_coeff	 7    0.00000    0.00000    0.05140    0.00000   -0.14300    0.00000  # c,c1,c1,c1
dihedral_coeff	 8    0.00000    0.00000    0.05140    0.00000   -0.14300    0.00000  # c,c1,c1,c3h
dihedral_coeff	 9    0.00000    0.00000    0.03160    0.00000   -0.16810    0.00000  # c,c1,c1,hc
dihedral_coeff	10    0.71370    0.00000    0.26600    0.00000   -0.25450    0.00000  # c,c1,c1,o3e
dihedral_coeff	11    0.71370    0.00000    0.26600    0.00000   -0.25450    0.00000  # c,c1,c1,oc
dihedral_coeff	12    0.71370    0.00000    0.26600    0.00000   -0.25450    0.00000  # c,c1,c1,oh
dihedral_coeff	13   -0.52030    0.00000   -0.30280    0.00000   -0.34500    0.00000  # c,c1,o3e,c1
dihedral_coeff	14   -0.52030    0.00000   -0.30280    0.00000   -0.34500    0.00000  # c,c1,oc,c1
dihedral_coeff	15    0.00000    0.00000    0.05140    0.00000   -0.14300    0.00000  # c,c3h,c3h,c1
dihedral_coeff	16    0.00000    0.00000    0.03160    0.00000   -0.16810    0.00000  # c,c3h,c3h,hc
dihedral_coeff	17    0.71370    0.00000    0.26600    0.00000   -0.25450    0.00000  # c,c3h,c3h,o3e
dihedral_coeff	18   -0.52030    0.00000   -0.30280    0.00000   -0.34500    0.00000  # c,c3h,o3e,c3h
dihedral_coeff	19    0.00000    0.00000    0.05140    0.00000   -0.14300    0.00000  # c1,c,c,c1
dihedral_coeff	20    0.00000    0.00000    0.03160    0.00000   -0.16810    0.00000  # c1,c,c,hc
dihedral_coeff	21    0.00000    0.00000    0.05140    0.00000   -0.14300    0.00000  # c1,c,c1,c1
dihedral_coeff	22    0.00000    0.00000    0.03160    0.00000   -0.16810    0.00000  # c1,c,c1,hc
dihedral_coeff	23    0.71370    0.00000    0.26600    0.00000   -0.25450    0.00000  # c1,c,c1,o3e
dihedral_coeff	24    0.71370    0.00000    0.26600    0.00000   -0.25450    0.00000  # c1,c,c1,oc
dihedral_coeff	25    0.00000    0.00000    0.05140    0.00000   -0.14300    0.00000  # c1,c,c3h,c3h
dihedral_coeff	26    0.00000    0.00000    0.03160    0.00000   -0.16810    0.00000  # c1,c,c3h,hc
dihedral_coeff	27    0.71370    0.00000    0.26600    0.00000   -0.25450    0.00000  # c1,c,c3h,o3e
dihedral_coeff	28    0.00000    0.00000    0.05140    0.00000   -0.14300    0.00000  # c1,c1,c,c3h
dihedral_coeff	29    0.00000    0.00000    0.03160    0.00000   -0.16810    0.00000  # c1,c1,c,hc
dihedral_coeff	30    0.00000    0.00000    0.05140    0.00000   -0.14300    0.00000  # c1,c1,c1,c1
dihedral_coeff	31    0.00000    0.00000    0.05140    0.00000   -0.14300    0.00000  # c1,c1,c1,c3h
dihedral_coeff	32    0.00000    0.00000    0.03160    0.00000   -0.16810    0.00000  # c1,c1,c1,hc
dihedral_coeff	33    0.71370    0.00000    0.26600    0.00000   -0.25450    0.00000  # c1,c1,c1,o3e
dihedral_coeff	34    0.71370    0.00000    0.26600    0.00000   -0.25450    0.00000  # c1,c1,c1,oc
dihedral_coeff	35    0.71370    0.00000    0.26600    0.00000   -0.25450    0.00000  # c1,c1,c1,oh
dihedral_coeff	36    0.00000    0.00000    0.05140    0.00000   -0.14300    0.00000  # c1,c1,c3h,c3h
dihedral_coeff	37    0.00000    0.00000    0.03160    0.00000   -0.16810    0.00000  # c1,c1,c3h,hc
dihedral_coeff	38    0.71370    0.00000    0.26600    0.00000   -0.25450    0.00000  # c1,c1,c3h,o3e
dihedral_coeff	39   -0.52030    0.00000   -0.30280    0.00000   -0.34500    0.00000  # c1,c1,o3e,c1
dihedral_coeff	40   -0.52030    0.00000   -0.30280    0.00000   -0.34500    0.00000  # c1,c1,oc,c1
dihedral_coeff	41    0.00000    0.00000    0.00000    0.00000    0.13000  180.00000  # c1,c1,oh,h
dihedral_coeff	42    0.00000    0.00000    0.03160    0.00000   -0.16810    0.00000  # c1,c3h,c3h,hc
dihedral_coeff	43    0.71370    0.00000    0.26600    0.00000   -0.25450    0.00000  # c1,c3h,c3h,o3e
dihedral_coeff	44   -0.52030    0.00000   -0.30280    0.00000   -0.34500    0.00000  # c1,c3h,o3e,c3h
dihedral_coeff	45    0.53020    0.00000    0.00000    0.00000   -0.39660    0.00000  # c1,o3e,c1,hc
dihedral_coeff	46    0.53020    0.00000    0.00000    0.00000   -0.39660    0.00000  # c1,oc,c1,hc
dihedral_coeff	47    0.00000    0.00000    0.03160    0.00000   -0.16810    0.00000  # c3h,c,c1,hc
dihedral_coeff	48    0.00000    0.00000    0.03160    0.00000   -0.16810    0.00000  # c3h,c1,c1,hc
dihedral_coeff	49    0.00000    0.00000    0.03160    0.00000   -0.16810    0.00000  # c3h,c3h,c,hc
dihedral_coeff	50    0.00000    0.00000    0.03160    0.00000   -0.16810    0.00000  # c3h,c3h,c1,hc
dihedral_coeff	51    0.53020    0.00000    0.00000    0.00000   -0.39660    0.00000  # c3h,o3e,c3h,hc
dihedral_coeff	52    0.00000    0.00000    0.00000    0.00000    0.13000  180.00000  # h,oh,c1,hc
dihedral_coeff	53   -0.14320    0.00000    0.06170    0.00000   -0.10830    0.00000  # hc,c,c,hc
dihedral_coeff	54   -0.14320    0.00000    0.06170    0.00000   -0.10830    0.00000  # hc,c,c1,hc
dihedral_coeff	55   -0.14350    0.00000    0.25300    0.00000   -0.09050    0.00000  # hc,c,c1,o3e
dihedral_coeff	56   -0.14350    0.00000    0.25300    0.00000   -0.09050    0.00000  # hc,c,c1,oc
dihedral_coeff	57   -0.14320    0.00000    0.06170    0.00000   -0.10830    0.00000  # hc,c,c3h,hc
dihedral_coeff	58   -0.14350    0.00000    0.25300    0.00000   -0.09050    0.00000  # hc,c,c3h,o3e
dihedral_coeff	59   -0.14320    0.00000    0.06170    0.00000   -0.10830    0.00000  # hc,c1,c1,hc
dihedral_coeff	60   -0.14350    0.00000    0.25300    0.00000   -0.09050    0.00000  # hc,c1,c1,o3e
dihedral_coeff	61   -0.14350    0.00000    0.25300    0.00000   -0.09050    0.00000  # hc,c1,c1,oc
dihedral_coeff	62   -0.14350    0.00000    0.25300    0.00000   -0.09050    0.00000  # hc,c1,c1,oh
dihedral_coeff	63   -0.14320    0.00000    0.06170    0.00000   -0.10830    0.00000  # hc,c1,c3h,hc
dihedral_coeff	64   -0.14350    0.00000    0.25300    0.00000   -0.09050    0.00000  # hc,c1,c3h,o3e
dihedral_coeff	65   -0.14320    0.00000    0.06170    0.00000   -0.10830    0.00000  # hc,c3h,c3h,hc
dihedral_coeff	66   -0.14350    0.00000    0.25300    0.00000   -0.09050    0.00000  # hc,c3h,c3h,o3e
dihedral_coeff	67   -0.18200    0.00000   -0.10840    0.00000   -0.70470    0.00000  # oc,c1,c1,oc
dihedral_coeff	68   -0.18200    0.00000   -0.10840    0.00000   -0.70470    0.00000  # oc,c1,c1,oh

# MiddleBondTorsion Coeffs

dihedral_coeff	 1 mbt  -17.78700   -7.18770    0.00000    1.53000  # c,c,c1,c1
dihedral_coeff	 2 mbt  -14.87900   -3.65810   -0.31380    1.53000  # c,c,c1,hc
dihedral_coeff	 3 mbt  -21.88420   -7.67640   -0.68680    1.53000  # c,c,c1,oc
dihedral_coeff	 4 mbt  -17.78700   -7.18770    0.00000    1.53000  # c,c1,c,c1
dihedral_coeff	 5 mbt  -14.87900   -3.65810   -0.31380    1.53000  # c,c1,c,hc
dihedral_coeff	 6 mbt  -17.78700   -7.18770    0.00000    1.53000  # c,c1,c1,c
dihedral_coeff	 7 mbt  -17.78700   -7.18770    0.00000    1.53000  # c,c1,c1,c1
dihedral_coeff	 8 mbt  -17.78700   -7.18770    0.00000    1.53000  # c,c1,c1,c3h
dihedral_coeff	 9 mbt  -14.87900   -3.65810   -0.31380    1.53000  # c,c1,c1,hc
dihedral_coeff	10 mbt  -21.88420   -7.67640   -0.68680    1.53000  # c,c1,c1,o3e
dihedral_coeff	11 mbt  -21.88420   -7.67640   -0.68680    1.53000  # c,c1,c1,oc
dihedral_coeff	12 mbt  -21.88420   -7.67640   -0.68680    1.53000  # c,c1,c1,oh
dihedral_coeff	13 mbt   -5.92880   -2.70070   -0.31750    1.42000  # c,c1,o3e,c1
dihedral_coeff	14 mbt   -5.92880   -2.70070   -0.31750    1.42000  # c,c1,oc,c1
dihedral_coeff	15 mbt  -17.78700   -7.18770    0.00000    1.53000  # c,c3h,c3h,c1
dihedral_coeff	16 mbt  -14.87900   -3.65810   -0.31380    1.53000  # c,c3h,c3h,hc
dihedral_coeff	17 mbt  -21.88420   -7.67640   -0.68680    1.53000  # c,c3h,c3h,o3e
dihedral_coeff	18 mbt   -5.92880   -2.70070   -0.31750    1.42000  # c,c3h,o3e,c3h
dihedral_coeff	19 mbt  -17.78700   -7.18770    0.00000    1.53000  # c1,c,c,c1
dihedral_coeff	20 mbt  -14.87900   -3.65810   -0.31380    1.53000  # c1,c,c,hc
dihedral_coeff	21 mbt  -17.78700   -7.18770    0.00000    1.53000  # c1,c,c1,c1
dihedral_coeff	22 mbt  -14.87900   -3.65810   -0.31380    1.53000  # c1,c,c1,hc
dihedral_coeff	23 mbt  -21.88420   -7.67640   -0.68680    1.53000  # c1,c,c1,o3e
dihedral_coeff	24 mbt  -21.88420   -7.67640   -0.68680    1.53000  # c1,c,c1,oc
dihedral_coeff	25 mbt  -17.78700   -7.18770    0.00000    1.53000  # c1,c,c3h,c3h
dihedral_coeff	26 mbt  -14.87900   -3.65810   -0.31380    1.53000  # c1,c,c3h,hc
dihedral_coeff	27 mbt  -21.88420   -7.67640   -0.68680    1.53000  # c1,c,c3h,o3e
dihedral_coeff	28 mbt  -17.78700   -7.18770    0.00000    1.53000  # c1,c1,c,c3h
dihedral_coeff	29 mbt  -14.87900   -3.65810   -0.31380    1.53000  # c1,c1,c,hc
dihedral_coeff	30 mbt  -17.78700   -7.18770    0.00000    1.53000  # c1,c1,c1,c1
dihedral_coeff	31 mbt  -17.78700   -7.18770    0.00000    1.53000  # c1,c1,c1,c3h
dihedral_coeff	32 mbt  -14.87900   -3.65810   -0.31380    1.53000  # c1,c1,c1,hc
dihedral_coeff	33 mbt  -21.88420   -7.67640   -0.68680    1.53000  # c1,c1,c1,o3e
dihedral_coeff	34 mbt  -21.88420   -7.67640   -0.68680    1.53000  # c1,c1,c1,oc
dihedral_coeff	35 mbt  -21.88420   -7.67640   -0.68680    1.53000  # c1,c1,c1,oh
dihedral_coeff	36 mbt  -17.78700   -7.18770    0.00000    1.53000  # c1,c1,c3h,c3h
dihedral_coeff	37 mbt  -14.87900   -3.65810   -0.31380    1.53000  # c1,c1,c3h,hc
dihedral_coeff	38 mbt  -21.88420   -7.67640   -0.68680    1.53000  # c1,c1,c3h,o3e
dihedral_coeff	39 mbt   -5.92880   -2.70070   -0.31750    1.42000  # c1,c1,o3e,c1
dihedral_coeff	40 mbt   -5.92880   -2.70070   -0.31750    1.42000  # c1,c1,oc,c1
dihedral_coeff	41 mbt    0.00000    0.00000    0.00000    1.42000  # c1,c1,oh,h
dihedral_coeff	42 mbt  -14.87900   -3.65810   -0.31380    1.53000  # c1,c3h,c3h,hc
dihedral_coeff	43 mbt  -21.88420   -7.67640   -0.68680    1.53000  # c1,c3h,c3h,o3e
dihedral_coeff	44 mbt   -5.92880   -2.70070   -0.31750    1.42000  # c1,c3h,o3e,c3h
dihedral_coeff	45 mbt   -6.80070   -4.65460   -1.41010    1.42000  # c1,o3e,c1,hc
dihedral_coeff	46 mbt   -6.80070   -4.65460   -1.41010    1.42000  # c1,oc,c1,hc
dihedral_coeff	47 mbt  -14.87900   -3.65810   -0.31380    1.53000  # c3h,c,c1,hc
dihedral_coeff	48 mbt  -14.87900   -3.65810   -0.31380    1.53000  # c3h,c1,c1,hc
dihedral_coeff	49 mbt  -14.87900   -3.65810   -0.31380    1.53000  # c3h,c3h,c,hc
dihedral_coeff	50 mbt  -14.87900   -3.65810   -0.31380    1.53000  # c3h,c3h,c1,hc
dihedral_coeff	51 mbt   -6.80070   -4.65460   -1.41010    1.42000  # c3h,o3e,c3h,hc
dihedral_coeff	52 mbt    0.00000    0.00000    0.00000    1.42000  # h,oh,c1,hc
dihedral_coeff	53 mbt  -14.26100   -0.53220   -0.48640    1.53000  # hc,c,c,hc
dihedral_coeff	54 mbt  -14.26100   -0.53220   -0.48640    1.53000  # hc,c,c1,hc
dihedral_coeff	55 mbt  -16.79750   -1.22960   -0.27500    1.53000  # hc,c,c1,o3e
dihedral_coeff	56 mbt  -16.79750   -1.22960   -0.27500    1.53000  # hc,c,c1,oc
dihedral_coeff	57 mbt  -14.26100   -0.53220   -0.48640    1.53000  # hc,c,c3h,hc
dihedral_coeff	58 mbt  -16.79750   -1.22960   -0.27500    1.53000  # hc,c,c3h,o3e
dihedral_coeff	59 mbt  -14.26100   -0.53220   -0.48640    1.53000  # hc,c1,c1,hc
dihedral_coeff	60 mbt  -16.79750   -1.22960   -0.27500    1.53000  # hc,c1,c1,o3e
dihedral_coeff	61 mbt  -16.79750   -1.22960   -0.27500    1.53000  # hc,c1,c1,oc
dihedral_coeff	62 mbt  -16.79750   -1.22960   -0.27500    1.53000  # hc,c1,c1,oh
dihedral_coeff	63 mbt  -14.26100   -0.53220   -0.48640    1.53000  # hc,c1,c3h,hc
dihedral_coeff	64 mbt  -16.79750   -1.22960   -0.27500    1.53000  # hc,c1,c3h,o3e
dihedral_coeff	65 mbt  -14.26100   -0.53220   -0.48640    1.53000  # hc,c3h,c3h,hc
dihedral_coeff	66 mbt  -16.79750   -1.22960   -0.27500    1.53000  # hc,c3h,c3h,o3e
dihedral_coeff	67 mbt  -17.25850   -3.61570   -0.83640    1.53000  # oc,c1,c1,oc
dihedral_coeff	68 mbt  -17.25850   -3.61570   -0.83640    1.53000  # oc,c1,c1,oh

# EndBondTorsion Coeffs

dihedral_coeff	 1 ebt   -0.07320    0.00000    0.00000   -0.07320    0.00000    0.00000    1.53000    1.53000  # c,c,c1,c1
dihedral_coeff	 2 ebt    0.08140    0.05910    0.22190    0.24860    0.24220   -0.09250    1.53000    1.10100  # c,c,c1,hc
dihedral_coeff	 3 ebt    1.15380    0.84090   -0.91380   -0.31900    0.44110   -0.71740    1.53000    1.42000  # c,c,c1,oc
dihedral_coeff	 4 ebt   -0.07320    0.00000    0.00000   -0.07320    0.00000    0.00000    1.53000    1.53000  # c,c1,c,c1
dihedral_coeff	 5 ebt    0.08140    0.05910    0.22190    0.24860    0.24220   -0.09250    1.53000    1.10100  # c,c1,c,hc
dihedral_coeff	 6 ebt   -0.07320    0.00000    0.00000   -0.07320    0.00000    0.00000    1.53000    1.53000  # c,c1,c1,c
dihedral_coeff	 7 ebt   -0.07320    0.00000    0.00000   -0.07320    0.00000    0.00000    1.53000    1.53000  # c,c1,c1,c1
dihedral_coeff	 8 ebt   -0.07320    0.00000    0.00000   -0.07320    0.00000    0.00000    1.53000    1.53000  # c,c1,c1,c3h
dihedral_coeff	 9 ebt    0.08140    0.05910    0.22190    0.24860    0.24220   -0.09250    1.53000    1.10100  # c,c1,c1,hc
dihedral_coeff	10 ebt   -0.31900    0.44110   -0.71740    1.15380    0.84090   -0.91380    1.53000    1.42000  # c,c1,c1,o3e
dihedral_coeff	11 ebt    1.15380    0.84090   -0.91380   -0.31900    0.44110   -0.71740    1.53000    1.42000  # c,c1,c1,oc
dihedral_coeff	12 ebt    1.15380    0.84090   -0.91380   -0.31900    0.44110   -0.71740    1.53000    1.42000  # c,c1,c1,oh
dihedral_coeff	13 ebt    0.47410    1.26350    0.55760   -0.24560    1.05170   -0.77950    1.53000    1.42000  # c,c1,o3e,c1
dihedral_coeff	14 ebt    0.47410    1.26350    0.55760   -0.24560    1.05170   -0.77950    1.53000    1.42000  # c,c1,oc,c1
dihedral_coeff	15 ebt   -0.07320    0.00000    0.00000   -0.07320    0.00000    0.00000    1.53000    1.53000  # c,c3h,c3h,c1
dihedral_coeff	16 ebt    0.08140    0.05910    0.22190    0.24860    0.24220   -0.09250    1.53000    1.10100  # c,c3h,c3h,hc
dihedral_coeff	17 ebt   -0.31900    0.44110   -0.71740    1.15380    0.84090   -0.91380    1.53000    1.42000  # c,c3h,c3h,o3e
dihedral_coeff	18 ebt   -0.24560    1.05170   -0.77950    0.47410    1.26350    0.55760    1.53000    1.42000  # c,c3h,o3e,c3h
dihedral_coeff	19 ebt   -0.07320    0.00000    0.00000   -0.07320    0.00000    0.00000    1.53000    1.53000  # c1,c,c,c1
dihedral_coeff	20 ebt    0.24860    0.24220   -0.09250    0.08140    0.05910    0.22190    1.53000    1.10100  # c1,c,c,hc
dihedral_coeff	21 ebt   -0.07320    0.00000    0.00000   -0.07320    0.00000    0.00000    1.53000    1.53000  # c1,c,c1,c1
dihedral_coeff	22 ebt    0.24860    0.24220   -0.09250    0.08140    0.05910    0.22190    1.53000    1.10100  # c1,c,c1,hc
dihedral_coeff	23 ebt   -0.31900    0.44110   -0.71740    1.15380    0.84090   -0.91380    1.53000    1.42000  # c1,c,c1,o3e
dihedral_coeff	24 ebt   -0.31900    0.44110   -0.71740    1.15380    0.84090   -0.91380    1.53000    1.42000  # c1,c,c1,oc
dihedral_coeff	25 ebt   -0.07320    0.00000    0.00000   -0.07320    0.00000    0.00000    1.53000    1.53000  # c1,c,c3h,c3h
dihedral_coeff	26 ebt    0.24860    0.24220   -0.09250    0.08140    0.05910    0.22190    1.53000    1.10100  # c1,c,c3h,hc
dihedral_coeff	27 ebt   -0.31900    0.44110   -0.71740    1.15380    0.84090   -0.91380    1.53000    1.42000  # c1,c,c3h,o3e
dihedral_coeff	28 ebt   -0.07320    0.00000    0.00000   -0.07320    0.00000    0.00000    1.53000    1.53000  # c1,c1,c,c3h
dihedral_coeff	29 ebt    0.24860    0.24220   -0.09250    0.08140    0.05910    0.22190    1.53000    1.10100  # c1,c1,c,hc
dihedral_coeff	30 ebt   -0.07320    0.00000    0.00000   -0.07320    0.00000    0.00000    1.53000    1.53000  # c1,c1,c1,c1
dihedral_coeff	31 ebt   -0.07320    0.00000    0.00000   -0.07320    0.00000    0.00000    1.53000    1.53000  # c1,c1,c1,c3h
dihedral_coeff	32 ebt    0.24860    0.24220   -0.09250    0.08140    0.05910    0.22190    1.53000    1.10100  # c1,c1,c1,hc
dihedral_coeff	33 ebt   -0.31900    0.44110   -0.71740    1.15380    0.84090   -0.91380    1.53000    1.42000  # c1,c1,c1,o3e
dihedral_coeff	34 ebt   -0.31900    0.44110   -0.71740    1.15380    0.84090   -0.91380    1.53000    1.42000  # c1,c1,c1,oc
dihedral_coeff	35 ebt    1.15380    0.84090   -0.91380   -0.31900    0.44110   -0.71740    1.53000    1.42000  # c1,c1,c1,oh
dihedral_coeff	36 ebt   -0.07320    0.00000    0.00000   -0.07320    0.00000    0.00000    1.53000    1.53000  # c1,c1,c3h,c3h
dihedral_coeff	37 ebt    0.24860    0.24220   -0.09250    0.08140    0.05910    0.22190    1.53000    1.10100  # c1,c1,c3h,hc
dihedral_coeff	38 ebt   -0.31900    0.44110   -0.71740    1.15380    0.84090   -0.91380    1.53000    1.42000  # c1,c1,c3h,o3e
dihedral_coeff	39 ebt   -0.24560    1.05170   -0.77950    0.47410    1.26350    0.55760    1.53000    1.42000  # c1,c1,o3e,c1
dihedral_coeff	40 ebt   -0.24560    1.05170   -0.77950    0.47410    1.26350    0.55760    1.53000    1.42000  # c1,c1,oc,c1
dihedral_coeff	41 ebt    0.00000    0.00000    0.00000    0.00000    0.00000    0.00000    1.53000    0.96000  # c1,c1,oh,h
dihedral_coeff	42 ebt    0.24860    0.24220   -0.09250    0.08140    0.05910    0.22190    1.53000    1.10100  # c1,c3h,c3h,hc
dihedral_coeff	43 ebt   -0.31900    0.44110   -0.71740    1.15380    0.84090   -0.91380    1.53000    1.42000  # c1,c3h,c3h,o3e
dihedral_coeff	44 ebt   -0.24560    1.05170   -0.77950    0.47410    1.26350    0.55760    1.53000    1.42000  # c1,c3h,o3e,c3h
dihedral_coeff	45 ebt   -0.16200    0.15640   -1.14080   -0.60540    1.33390    0.96480    1.42000    1.10100  # c1,o3e,c1,hc
dihedral_coeff	46 ebt   -0.16200    0.15640   -1.14080   -0.60540    1.33390    0.96480    1.42000    1.10100  # c1,oc,c1,hc
dihedral_coeff	47 ebt    0.08140    0.05910    0.22190    0.24860    0.24220   -0.09250    1.53000    1.10100  # c3h,c,c1,hc
dihedral_coeff	48 ebt    0.08140    0.05910    0.22190    0.24860    0.24220   -0.09250    1.53000    1.10100  # c3h,c1,c1,hc
dihedral_coeff	49 ebt    0.08140    0.05910    0.22190    0.24860    0.24220   -0.09250    1.53000    1.10100  # c3h,c3h,c,hc
dihedral_coeff	50 ebt    0.08140    0.05910    0.22190    0.24860    0.24220   -0.09250    1.53000    1.10100  # c3h,c3h,c1,hc
dihedral_coeff	51 ebt   -0.60540    1.33390    0.96480   -0.16200    0.15640   -1.14080    1.42000    1.10100  # c3h,o3e,c3h,hc
dihedral_coeff	52 ebt    0.00000    0.00000    0.00000    0.00000    0.00000    0.00000    0.96000    1.10100  # h,oh,c1,hc
dihedral_coeff	53 ebt    0.21300    0.31200    0.07770    0.21300    0.31200    0.07770    1.10100    1.10100  # hc,c,c,hc
dihedral_coeff	54 ebt    0.21300    0.31200    0.07770    0.21300    0.31200    0.07770    1.10100    1.10100  # hc,c,c1,hc
dihedral_coeff	55 ebt    0.96810    0.95510    0.04360    0.59030    0.66690    0.85840    1.10100    1.42000  # hc,c,c1,o3e
dihedral_coeff	56 ebt    0.96810    0.95510    0.04360    0.59030    0.66690    0.85840    1.10100    1.42000  # hc,c,c1,oc
dihedral_coeff	57 ebt    0.21300    0.31200    0.07770    0.21300    0.31200    0.07770    1.10100    1.10100  # hc,c,c3h,hc
dihedral_coeff	58 ebt    0.96810    0.95510    0.04360    0.59030    0.66690    0.85840    1.10100    1.42000  # hc,c,c3h,o3e
dihedral_coeff	59 ebt    0.21300    0.31200    0.07770    0.21300    0.31200    0.07770    1.10100    1.10100  # hc,c1,c1,hc
dihedral_coeff	60 ebt    0.96810    0.95510    0.04360    0.59030    0.66690    0.85840    1.10100    1.42000  # hc,c1,c1,o3e
dihedral_coeff	61 ebt    0.96810    0.95510    0.04360    0.59030    0.66690    0.85840    1.10100    1.42000  # hc,c1,c1,oc
dihedral_coeff	62 ebt    0.59030    0.66690    0.85840    0.96810    0.95510    0.04360    1.10100    1.42000  # hc,c1,c1,oh
dihedral_coeff	63 ebt    0.21300    0.31200    0.07770    0.21300    0.31200    0.07770    1.10100    1.10100  # hc,c1,c3h,hc
dihedral_coeff	64 ebt    0.96810    0.95510    0.04360    0.59030    0.66690    0.85840    1.10100    1.42000  # hc,c1,c3h,o3e
dihedral_coeff	65 ebt    0.21300    0.31200    0.07770    0.21300    0.31200    0.07770    1.10100    1.10100  # hc,c3h,c3h,hc
dihedral_coeff	66 ebt    0.96810    0.95510    0.04360    0.59030    0.66690    0.85840    1.10100    1.42000  # hc,c3h,c3h,o3e
dihedral_coeff	67 ebt    1.01650    0.75530   -0.46090    1.01650    0.75530   -0.46090    1.42000    1.42000  # oc,c1,c1,oc
dihedral_coeff	68 ebt    1.01650    0.75530   -0.46090    1.01650    0.75530   -0.46090    1.42000    1.42000  # oc,c1,c1,oh

# AngleTorsion Coeffs

dihedral_coeff	 1 at    0.38860   -0.31390    0.13890    0.38860   -0.31390    0.13890  112.67000  112.67000  # c,c,c1,c1
dihedral_coeff	 2 at    0.31130    0.45160   -0.19880   -0.24540    0.00000   -0.11360  112.67000  110.77000  # c,c,c1,hc
dihedral_coeff	 3 at    0.96720   -0.75660   -1.23310    0.56230   -0.30410   -0.40150  112.67000  111.27000  # c,c,c1,oc
dihedral_coeff	 4 at    0.38860   -0.31390    0.13890    0.38860   -0.31390    0.13890  112.67000  112.67000  # c,c1,c,c1
dihedral_coeff	 5 at    0.31130    0.45160   -0.19880   -0.24540    0.00000   -0.11360  112.67000  110.77000  # c,c1,c,hc
dihedral_coeff	 6 at    0.38860   -0.31390    0.13890    0.38860   -0.31390    0.13890  112.67000  112.67000  # c,c1,c1,c
dihedral_coeff	 7 at    0.38860   -0.31390    0.13890    0.38860   -0.31390    0.13890  112.67000  112.67000  # c,c1,c1,c1
dihedral_coeff	 8 at    0.38860   -0.31390    0.13890    0.38860   -0.31390    0.13890  112.67000  112.67000  # c,c1,c1,c3h
dihedral_coeff	 9 at    0.31130    0.45160   -0.19880   -0.24540    0.00000   -0.11360  112.67000  110.77000  # c,c1,c1,hc
dihedral_coeff	10 at    0.56230   -0.30410   -0.40150    0.96720   -0.75660   -1.23310  112.67000  111.27000  # c,c1,c1,o3e
dihedral_coeff	11 at    0.96720   -0.75660   -1.23310    0.56230   -0.30410   -0.40150  112.67000  111.27000  # c,c1,c1,oc
dihedral_coeff	12 at    0.96720   -0.75660   -1.23310    0.56230   -0.30410   -0.40150  112.67000  111.27000  # c,c1,c1,oh
dihedral_coeff	13 at    0.56760    0.94500    0.07030   -2.74660    1.48770   -0.89550  111.27000  104.50000  # c,c1,o3e,c1
dihedral_coeff	14 at    0.56760    0.94500    0.07030   -2.74660    1.48770   -0.89550  111.27000  104.50000  # c,c1,oc,c1
dihedral_coeff	15 at    0.38860   -0.31390    0.13890    0.38860   -0.31390    0.13890  112.67000  112.67000  # c,c3h,c3h,c1
dihedral_coeff	16 at    0.31130    0.45160   -0.19880   -0.24540    0.00000   -0.11360  112.67000  110.77000  # c,c3h,c3h,hc
dihedral_coeff	17 at    0.56230   -0.30410   -0.40150    0.96720   -0.75660   -1.23310  112.67000  111.27000  # c,c3h,c3h,o3e
dihedral_coeff	18 at   -2.74660    1.48770   -0.89550    0.56760    0.94500    0.07030  111.27000  104.50000  # c,c3h,o3e,c3h
dihedral_coeff	19 at    0.38860   -0.31390    0.13890    0.38860   -0.31390    0.13890  112.67000  112.67000  # c1,c,c,c1
dihedral_coeff	20 at   -0.24540    0.00000   -0.11360    0.31130    0.45160   -0.19880  112.67000  110.77000  # c1,c,c,hc
dihedral_coeff	21 at    0.38860   -0.31390    0.13890    0.38860   -0.31390    0.13890  112.67000  112.67000  # c1,c,c1,c1
dihedral_coeff	22 at   -0.24540    0.00000   -0.11360    0.31130    0.45160   -0.19880  112.67000  110.77000  # c1,c,c1,hc
dihedral_coeff	23 at    0.56230   -0.30410   -0.40150    0.96720   -0.75660   -1.23310  112.67000  111.27000  # c1,c,c1,o3e
dihedral_coeff	24 at    0.56230   -0.30410   -0.40150    0.96720   -0.75660   -1.23310  112.67000  111.27000  # c1,c,c1,oc
dihedral_coeff	25 at    0.38860   -0.31390    0.13890    0.38860   -0.31390    0.13890  112.67000  112.67000  # c1,c,c3h,c3h
dihedral_coeff	26 at   -0.24540    0.00000   -0.11360    0.31130    0.45160   -0.19880  112.67000  110.77000  # c1,c,c3h,hc
dihedral_coeff	27 at    0.56230   -0.30410   -0.40150    0.96720   -0.75660   -1.23310  112.67000  111.27000  # c1,c,c3h,o3e
dihedral_coeff	28 at    0.38860   -0.31390    0.13890    0.38860   -0.31390    0.13890  112.67000  112.67000  # c1,c1,c,c3h
dihedral_coeff	29 at   -0.24540    0.00000   -0.11360    0.31130    0.45160   -0.19880  112.67000  110.77000  # c1,c1,c,hc
dihedral_coeff	30 at    0.38860   -0.31390    0.13890    0.38860   -0.31390    0.13890  112.67000  112.67000  # c1,c1,c1,c1
dihedral_coeff	31 at    0.38860   -0.31390    0.13890    0.38860   -0.31390    0.13890  112.67000  112.67000  # c1,c1,c1,c3h
dihedral_coeff	32 at   -0.24540    0.00000   -0.11360    0.31130    0.45160   -0.19880  112.67000  110.77000  # c1,c1,c1,hc
dihedral_coeff	33 at    0.56230   -0.30410   -0.40150    0.96720   -0.75660   -1.23310  112.67000  111.27000  # c1,c1,c1,o3e
dihedral_coeff	34 at    0.56230   -0.30410   -0.40150    0.96720   -0.75660   -1.23310  112.67000  111.27000  # c1,c1,c1,oc
dihedral_coeff	35 at    0.96720   -0.75660   -1.23310    0.56230   -0.30410   -0.40150  112.67000  111.27000  # c1,c1,c1,oh
dihedral_coeff	36 at    0.38860   -0.31390    0.13890    0.38860   -0.31390    0.13890  112.67000  112.67000  # c1,c1,c3h,c3h
dihedral_coeff	37 at   -0.24540    0.00000   -0.11360    0.31130    0.45160   -0.19880  112.67000  110.77000  # c1,c1,c3h,hc
dihedral_coeff	38 at    0.56230   -0.30410   -0.40150    0.96720   -0.75660   -1.23310  112.67000  111.27000  # c1,c1,c3h,o3e
dihedral_coeff	39 at   -2.74660    1.48770   -0.89550    0.56760    0.94500    0.07030  111.27000  104.50000  # c1,c1,o3e,c1
dihedral_coeff	40 at   -2.74660    1.48770   -0.89550    0.56760    0.94500    0.07030  111.27000  104.50000  # c1,c1,oc,c1
dihedral_coeff	41 at    0.00000    0.00000    0.00000    0.00000    0.00000    0.00000  111.27000  109.00000  # c1,c1,oh,h
dihedral_coeff	42 at   -0.24540    0.00000   -0.11360    0.31130    0.45160   -0.19880  112.67000  110.77000  # c1,c3h,c3h,hc
dihedral_coeff	43 at    0.56230   -0.30410   -0.40150    0.96720   -0.75660   -1.23310  112.67000  111.27000  # c1,c3h,c3h,o3e
dihedral_coeff	44 at   -2.74660    1.48770   -0.89550    0.56760    0.94500    0.07030  111.27000  104.50000  # c1,c3h,o3e,c3h
dihedral_coeff	45 at   -0.77770    0.43400   -0.66530   -1.82340    1.63930    0.51440  104.50000  108.72800  # c1,o3e,c1,hc
dihedral_coeff	46 at   -0.77770    0.43400   -0.66530   -1.82340    1.63930    0.51440  104.50000  108.72800  # c1,oc,c1,hc
dihedral_coeff	47 at    0.31130    0.45160   -0.19880   -0.24540    0.00000   -0.11360  112.67000  110.77000  # c3h,c,c1,hc
dihedral_coeff	48 at    0.31130    0.45160   -0.19880   -0.24540    0.00000   -0.11360  112.67000  110.77000  # c3h,c1,c1,hc
dihedral_coeff	49 at    0.31130    0.45160   -0.19880   -0.24540    0.00000   -0.11360  112.67000  110.77000  # c3h,c3h,c,hc
dihedral_coeff	50 at    0.31130    0.45160   -0.19880   -0.24540    0.00000   -0.11360  112.67000  110.77000  # c3h,c3h,c1,hc
dihedral_coeff	51 at   -1.82340    1.63930    0.51440   -0.77770    0.43400   -0.66530  104.50000  108.72800  # c3h,o3e,c3h,hc
dihedral_coeff	52 at    0.00000    0.00000    0.00000    0.00000    0.00000    0.00000  109.00000  108.72800  # h,oh,c1,hc
dihedral_coeff	53 at   -0.80850    0.55690   -0.24660   -0.80850    0.55690   -0.24660  110.77000  110.77000  # hc,c,c,hc
dihedral_coeff	54 at   -0.80850    0.55690   -0.24660   -0.80850    0.55690   -0.24660  110.77000  110.77000  # hc,c,c1,hc
dihedral_coeff	55 at    2.36680    2.49200   -1.01220   -0.18920    0.49180    0.72730  110.77000  111.27000  # hc,c,c1,o3e
dihedral_coeff	56 at    2.36680    2.49200   -1.01220   -0.18920    0.49180    0.72730  110.77000  111.27000  # hc,c,c1,oc
dihedral_coeff	57 at   -0.80850    0.55690   -0.24660   -0.80850    0.55690   -0.24660  110.77000  110.77000  # hc,c,c3h,hc
dihedral_coeff	58 at    2.36680    2.49200   -1.01220   -0.18920    0.49180    0.72730  110.77000  111.27000  # hc,c,c3h,o3e
dihedral_coeff	59 at   -0.80850    0.55690   -0.24660   -0.80850    0.55690   -0.24660  110.77000  110.77000  # hc,c1,c1,hc
dihedral_coeff	60 at    2.36680    2.49200   -1.01220   -0.18920    0.49180    0.72730  110.77000  111.27000  # hc,c1,c1,o3e
dihedral_coeff	61 at    2.36680    2.49200   -1.01220   -0.18920    0.49180    0.72730  110.77000  111.27000  # hc,c1,c1,oc
dihedral_coeff	62 at   -0.18920    0.49180    0.72730    2.36680    2.49200   -1.01220  110.77000  111.27000  # hc,c1,c1,oh
dihedral_coeff	63 at   -0.80850    0.55690   -0.24660   -0.80850    0.55690   -0.24660  110.77000  110.77000  # hc,c1,c3h,hc
dihedral_coeff	64 at    2.36680    2.49200   -1.01220   -0.18920    0.49180    0.72730  110.77000  111.27000  # hc,c1,c3h,o3e
dihedral_coeff	65 at   -0.80850    0.55690   -0.24660   -0.80850    0.55690   -0.24660  110.77000  110.77000  # hc,c3h,c3h,hc
dihedral_coeff	66 at    2.36680    2.49200   -1.01220   -0.18920    0.49180    0.72730  110.77000  111.27000  # hc,c3h,c3h,o3e
dihedral_coeff	67 at    0.55110    0.97370   -0.66730    0.55110    0.97370   -0.66730  111.27000  111.27000  # oc,c1,c1,oc
dihedral_coeff	68 at    0.55110    0.97370   -0.66730    0.55110    0.97370   -0.66730  111.27000  111.27000  # oc,c1,c1,oh

# AngleAngleTorsion Coeffs

dihedral_coeff	 1 aat  -22.04500  112.67000  112.67000  # c,c,c1,c1
dihedral_coeff	 2 aat  -16.16400  112.67000  110.77000  # c,c,c1,hc
dihedral_coeff	 3 aat  -29.04200  112.67000  111.27000  # c,c,c1,oc
dihedral_coeff	 4 aat  -22.04500  112.67000  112.67000  # c,c1,c,c1
dihedral_coeff	 5 aat  -16.16400  112.67000  110.77000  # c,c1,c,hc
dihedral_coeff	 6 aat  -22.04500  112.67000  112.67000  # c,c1,c1,c
dihedral_coeff	 7 aat  -22.04500  112.67000  112.67000  # c,c1,c1,c1
dihedral_coeff	 8 aat  -22.04500  112.67000  112.67000  # c,c1,c1,c3h
dihedral_coeff	 9 aat  -16.16400  112.67000  110.77000  # c,c1,c1,hc
dihedral_coeff	10 aat  -29.04200  112.67000  111.27000  # c,c1,c1,o3e
dihedral_coeff	11 aat  -29.04200  112.67000  111.27000  # c,c1,c1,oc
dihedral_coeff	12 aat  -29.04200  112.67000  111.27000  # c,c1,c1,oh
dihedral_coeff	13 aat  -19.00590  111.27000  104.50000  # c,c1,o3e,c1
dihedral_coeff	14 aat  -19.00590  111.27000  104.50000  # c,c1,oc,c1
dihedral_coeff	15 aat  -22.04500  112.67000  112.67000  # c,c3h,c3h,c1
dihedral_coeff	16 aat  -16.16400  112.67000  110.77000  # c,c3h,c3h,hc
dihedral_coeff	17 aat  -29.04200  112.67000  111.27000  # c,c3h,c3h,o3e
dihedral_coeff	18 aat  -19.00590  111.27000  104.50000  # c,c3h,o3e,c3h
dihedral_coeff	19 aat  -22.04500  112.67000  112.67000  # c1,c,c,c1
dihedral_coeff	20 aat  -16.16400  112.67000  110.77000  # c1,c,c,hc
dihedral_coeff	21 aat  -22.04500  112.67000  112.67000  # c1,c,c1,c1
dihedral_coeff	22 aat  -16.16400  112.67000  110.77000  # c1,c,c1,hc
dihedral_coeff	23 aat  -29.04200  112.67000  111.27000  # c1,c,c1,o3e
dihedral_coeff	24 aat  -29.04200  112.67000  111.27000  # c1,c,c1,oc
dihedral_coeff	25 aat  -22.04500  112.67000  112.67000  # c1,c,c3h,c3h
dihedral_coeff	26 aat  -16.16400  112.67000  110.77000  # c1,c,c3h,hc
dihedral_coeff	27 aat  -29.04200  112.67000  111.27000  # c1,c,c3h,o3e
dihedral_coeff	28 aat  -22.04500  112.67000  112.67000  # c1,c1,c,c3h
dihedral_coeff	29 aat  -16.16400  112.67000  110.77000  # c1,c1,c,hc
dihedral_coeff	30 aat  -22.04500  112.67000  112.67000  # c1,c1,c1,c1
dihedral_coeff	31 aat  -22.04500  112.67000  112.67000  # c1,c1,c1,c3h
dihedral_coeff	32 aat  -16.16400  112.67000  110.77000  # c1,c1,c1,hc
dihedral_coeff	33 aat  -29.04200  112.67000  111.27000  # c1,c1,c1,o3e
dihedral_coeff	34 aat  -29.04200  112.67000  111.27000  # c1,c1,c1,oc
dihedral_coeff	35 aat  -29.04200  112.67000  111.27000  # c1,c1,c1,oh
dihedral_coeff	36 aat  -22.04500  112.67000  112.67000  # c1,c1,c3h,c3h
dihedral_coeff	37 aat  -16.16400  112.67000  110.77000  # c1,c1,c3h,hc
dihedral_coeff	38 aat  -29.04200  112.67000  111.27000  # c1,c1,c3h,o3e
dihedral_coeff	39 aat  -19.00590  111.27000  104.50000  # c1,c1,o3e,c1
dihedral_coeff	40 aat  -19.00590  111.27000  104.50000  # c1,c1,oc,c1
dihedral_coeff	41 aat    0.00000  111.27000  109.00000  # c1,c1,oh,h
dihedral_coeff	42 aat  -16.16400  112.67000  110.77000  # c1,c3h,c3h,hc
dihedral_coeff	43 aat  -29.04200  112.67000  111.27000  # c1,c3h,c3h,o3e
dihedral_coeff	44 aat  -19.00590  111.27000  104.50000  # c1,c3h,o3e,c3h
dihedral_coeff	45 aat  -16.44380  104.50000  108.72800  # c1,o3e,c1,hc
dihedral_coeff	46 aat  -16.44380  104.50000  108.72800  # c1,oc,c1,hc
dihedral_coeff	47 aat  -16.16400  112.67000  110.77000  # c3h,c,c1,hc
dihedral_coeff	48 aat  -16.16400  112.67000  110.77000  # c3h,c1,c1,hc
dihedral_coeff	49 aat  -16.16400  112.67000  110.77000  # c3h,c3h,c,hc
dihedral_coeff	50 aat  -16.16400  112.67000  110.77000  # c3h,c3h,c1,hc
dihedral_coeff	51 aat  -16.44380  104.50000  108.72800  # c3h,o3e,c3h,hc
dihedral_coeff	52 aat    0.00000  109.00000  108.72800  # h,oh,c1,hc
dihedral_coeff	53 aat  -12.56400  110.77000  110.77000  # hc,c,c,hc
dihedral_coeff	54 aat  -12.56400  110.77000  110.77000  # hc,c,c1,hc
dihedral_coeff	55 aat  -20.20060  110.77000  111.27000  # hc,c,c1,o3e
dihedral_coeff	56 aat  -20.20060  110.77000  111.27000  # hc,c,c1,oc
dihedral_coeff	57 aat  -12.56400  110.77000  110.77000  # hc,c,c3h,hc
dihedral_coeff	58 aat  -20.20060  110.77000  111.27000  # hc,c,c3h,o3e
dihedral_coeff	59 aat  -12.56400  110.77000  110.77000  # hc,c1,c1,hc
dihedral_coeff	60 aat  -20.20060  110.77000  111.27000  # hc,c1,c1,o3e
dihedral_coeff	61 aat  -20.20060  110.77000  111.27000  # hc,c1,c1,oc
dihedral_coeff	62 aat  -20.20060  110.77000  111.27000  # hc,c1,c1,oh
dihedral_coeff	63 aat  -12.56400  110.77000  110.77000  # hc,c1,c3h,hc
dihedral_coeff	64 aat  -20.20060  110.77000  111.27000  # hc,c1,c3h,o3e
dihedral_coeff	65 aat  -12.56400  110.77000  110.77000  # hc,c3h,c3h,hc
dihedral_coeff	66 aat  -20.20060  110.77000  111.27000  # hc,c3h,c3h,o3e
dihedral_coeff	67 aat  -14.04840  111.27000  111.27000  # oc,c1,c1,oc
dihedral_coeff	68 aat  -14.04840  111.27000  111.27000  # oc,c1,c1,oh

# BondBond13 Coeffs

dihedral_coeff	 1 bb13    0.00000    1.53000    1.53000  # c,c,c1,c1
dihedral_coeff	 2 bb13    0.00000    1.53000    1.10100  # c,c,c1,hc
dihedral_coeff	 3 bb13    0.00000    1.53000    1.42000  # c,c,c1,oc
dihedral_coeff	 4 bb13    0.00000    1.53000    1.53000  # c,c1,c,c1
dihedral_coeff	 5 bb13    0.00000    1.53000    1.10100  # c,c1,c,hc
dihedral_coeff	 6 bb13    0.00000    1.53000    1.53000  # c,c1,c1,c
dihedral_coeff	 7 bb13    0.00000    1.53000    1.53000  # c,c1,c1,c1
dihedral_coeff	 8 bb13    0.00000    1.53000    1.53000  # c,c1,c1,c3h
dihedral_coeff	 9 bb13    0.00000    1.53000    1.10100  # c,c1,c1,hc
dihedral_coeff	10 bb13    0.00000    1.53000    1.42000  # c,c1,c1,o3e
dihedral_coeff	11 bb13    0.00000    1.53000    1.42000  # c,c1,c1,oc
dihedral_coeff	12 bb13    0.00000    1.53000    1.42000  # c,c1,c1,oh
dihedral_coeff	13 bb13    0.00000    1.53000    1.42000  # c,c1,o3e,c1
dihedral_coeff	14 bb13    0.00000    1.53000    1.42000  # c,c1,oc,c1
dihedral_coeff	15 bb13    0.00000    1.53000    1.53000  # c,c3h,c3h,c1
dihedral_coeff	16 bb13    0.00000    1.53000    1.10100  # c,c3h,c3h,hc
dihedral_coeff	17 bb13    0.00000    1.53000    1.42000  # c,c3h,c3h,o3e
dihedral_coeff	18 bb13    0.00000    1.53000    1.42000  # c,c3h,o3e,c3h
dihedral_coeff	19 bb13    0.00000    1.53000    1.53000  # c1,c,c,c1
dihedral_coeff	20 bb13    0.00000    1.53000    1.10100  # c1,c,c,hc
dihedral_coeff	21 bb13    0.00000    1.53000    1.53000  # c1,c,c1,c1
dihedral_coeff	22 bb13    0.00000    1.53000    1.10100  # c1,c,c1,hc
dihedral_coeff	23 bb13    0.00000    1.53000    1.42000  # c1,c,c1,o3e
dihedral_coeff	24 bb13    0.00000    1.53000    1.42000  # c1,c,c1,oc
dihedral_coeff	25 bb13    0.00000    1.53000    1.53000  # c1,c,c3h,c3h
dihedral_coeff	26 bb13    0.00000    1.53000    1.10100  # c1,c,c3h,hc
dihedral_coeff	27 bb13    0.00000    1.53000    1.42000  # c1,c,c3h,o3e
dihedral_coeff	28 bb13    0.00000    1.53000    1.53000  # c1,c1,c,c3h
dihedral_coeff	29 bb13    0.00000    1.53000    1.10100  # c1,c1,c,hc
dihedral_coeff	30 bb13    0.00000    1.53000    1.53000  # c1,c1,c1,c1
dihedral_coeff	31 bb13    0.00000    1.53000    1.53000  # c1,c1,c1,c3h
dihedral_coeff	32 bb13    0.00000    1.53000    1.10100  # c1,c1,c1,hc
dihedral_coeff	33 bb13    0.00000    1.53000    1.42000  # c1,c1,c1,o3e
dihedral_coeff	34 bb13    0.00000    1.53000    1.42000  # c1,c1,c1,oc
dihedral_coeff	35 bb13    0.00000    1.53000    1.42000  # c1,c1,c1,oh
dihedral_coeff	36 bb13    0.00000    1.53000    1.53000  # c1,c1,c3h,c3h
dihedral_coeff	37 bb13    0.00000    1.53000    1.10100  # c1,c1,c3h,hc
dihedral_coeff	38 bb13    0.00000    1.53000    1.42000  # c1,c1,c3h,o3e
dihedral_coeff	39 bb13    0.00000    1.53000    1.42000  # c1,c1,o3e,c1
dihedral_coeff	40 bb13    0.00000    1.53000    1.42000  # c1,c1,oc,c1
dihedral_coeff	41 bb13    0.00000    1.53000    0.96000  # c1,c1,oh,h
dihedral_coeff	42 bb13    0.00000    1.53000    1.10100  # c1,c3h,c3h,hc
dihedral_coeff	43 bb13    0.00000    1.53000    1.42000  # c1,c3h,c3h,o3e
dihedral_coeff	44 bb13    0.00000    1.53000    1.42000  # c1,c3h,o3e,c3h
dihedral_coeff	45 bb13    0.00000    1.42000    1.10100  # c1,o3e,c1,hc
dihedral_coeff	46 bb13    0.00000    1.42000    1.10100  # c1,oc,c1,hc
dihedral_coeff	47 bb13    0.00000    1.53000    1.10100  # c3h,c,c1,hc
dihedral_coeff	48 bb13    0.00000    1.53000    1.10100  # c3h,c1,c1,hc
dihedral_coeff	49 bb13    0.00000    1.53000    1.10100  # c3h,c3h,c,hc
dihedral_coeff	50 bb13    0.00000    1.53000    1.10100  # c3h,c3h,c1,hc
dihedral_coeff	51 bb13    0.00000    1.42000    1.10100  # c3h,o3e,c3h,hc
dihedral_coeff	52 bb13    0.00000    0.96000    1.10100  # h,oh,c1,hc
dihedral_coeff	53 bb13    0.00000    1.10100    1.10100  # hc,c,c,hc
dihedral_coeff	54 bb13    0.00000    1.10100    1.10100  # hc,c,c1,hc
dihedral_coeff	55 bb13    0.00000    1.10100    1.42000  # hc,c,c1,o3e
dihedral_coeff	56 bb13    0.00000    1.10100    1.42000  # hc,c,c1,oc
dihedral_coeff	57 bb13    0.00000    1.10100    1.10100  # hc,c,c3h,hc
dihedral_coeff	58 bb13    0.00000    1.10100    1.42000  # hc,c,c3h,o3e
dihedral_coeff	59 bb13    0.00000    1.10100    1.10100  # hc,c1,c1,hc
dihedral_coeff	60 bb13    0.00000    1.10100    1.42000  # hc,c1,c1,o3e
dihedral_coeff	61 bb13    0.00000    1.10100    1.42000  # hc,c1,c1,oc
dihedral_coeff	62 bb13    0.00000    1.10100    1.42000  # hc,c1,c1,oh
dihedral_coeff	63 bb13    0.00000    1.10100    1.10100  # hc,c1,c3h,hc
dihedral_coeff	64 bb13    0.00000    1.10100    1.42000  # hc,c1,c3h,o3e
dihedral_coeff	65 bb13    0.00000    1.10100    1.10100  # hc,c3h,c3h,hc
dihedral_coeff	66 bb13    0.00000    1.10100    1.42000  # hc,c3h,c3h,o3e
dihedral_coeff	67 bb13    0.00000    1.42000    1.42000  # oc,c1,c1,oc
dihedral_coeff	68 bb13    0.00000    1.42000    1.42000  # oc,c1,c1,oh

# Improper Coeffs

improper_coeff	 1    0.00000    0.00000  # c,c,c1,hc
improper_coeff	 2    0.00000    0.00000  # c,c,hc,c1
improper_coeff	 3    0.00000    0.00000  # c,c,hc,hc
improper_coeff	 4    0.00000    0.00000  # c,c1,c1,hc
improper_coeff	 5    0.00000    0.00000  # c,c1,hc,c3h
improper_coeff	 6    0.00000    0.00000  # c,c1,hc,hc
improper_coeff	 7    0.00000    0.00000  # c,c3h,hc,hc
improper_coeff	 8    0.00000    0.00000  # c1,c,c,c1
improper_coeff	 9    0.00000    0.00000  # c1,c,c,hc
improper_coeff	10    0.00000    0.00000  # c1,c,c1,c1
improper_coeff	11    0.00000    0.00000  # c1,c,c1,hc
improper_coeff	12    0.00000    0.00000  # c1,c,c1,oc
improper_coeff	13    0.00000    0.00000  # c1,c,hc,c1
improper_coeff	14    0.00000    0.00000  # c1,c,hc,oc
improper_coeff	15    0.00000    0.00000  # c1,c,o3e,c1
improper_coeff	16    0.00000    0.00000  # c1,c,o3e,hc
improper_coeff	17    0.00000    0.00000  # c1,c,oc,c1
improper_coeff	18    0.00000    0.00000  # c1,c,oc,hc
improper_coeff	19    0.00000    0.00000  # c1,c1,c1,c1
improper_coeff	20    0.00000    0.00000  # c1,c1,c1,c3h
improper_coeff	21    0.00000    0.00000  # c1,c1,c1,hc
improper_coeff	22    0.00000    0.00000  # c1,c1,c1,o3e
improper_coeff	23    0.00000    0.00000  # c1,c1,c1,oc
improper_coeff	24    0.00000    0.00000  # c1,c1,c1,oh
improper_coeff	25    0.00000    0.00000  # c1,c1,c3h,hc
improper_coeff	26    0.00000    0.00000  # c1,c1,hc,c3h
improper_coeff	27    0.00000    0.00000  # c1,c1,hc,o3e
improper_coeff	28    0.00000    0.00000  # c1,c1,hc,oc
improper_coeff	29    0.00000    0.00000  # c1,c1,hc,oh
improper_coeff	30    0.00000    0.00000  # c1,c1,o3e,hc
improper_coeff	31    0.00000    0.00000  # c1,c1,oc,hc
improper_coeff	32    0.00000    0.00000  # c3h,c,hc,c3h
improper_coeff	33    0.00000    0.00000  # c3h,c,o3e,c3h
improper_coeff	34    0.00000    0.00000  # c3h,c,o3e,hc
improper_coeff	35    0.00000    0.00000  # c3h,c1,c3h,hc
improper_coeff	36    0.00000    0.00000  # c3h,c1,c3h,o3e
improper_coeff	37    0.00000    0.00000  # c3h,c1,o3e,hc
improper_coeff	38    0.00000    0.00000  # c3h,c3h,o3e,hc

# AngleAngle Coeffs

improper_coeff	 1 aa    0.00000   -1.31990    0.00000  112.67000  110.77000  110.77000  # c,c,c1,hc
improper_coeff	 2 aa    0.00000   -1.31990    0.00000  110.77000  112.67000  110.77000  # c,c,hc,c1
improper_coeff	 3 aa    0.00000   -0.48250    0.00000  110.77000  110.77000  107.66000  # c,c,hc,hc
improper_coeff	 4 aa   -1.31990   -1.31990    0.11840  112.67000  110.77000  110.77000  # c,c1,c1,hc
improper_coeff	 5 aa    0.11840    0.00000   -1.31990  110.77000  112.67000  110.77000  # c,c1,hc,c3h
improper_coeff	 6 aa    0.27380   -0.48250    0.27380  110.77000  110.77000  107.66000  # c,c1,hc,hc
improper_coeff	 7 aa    0.00000   -0.48250    0.00000  110.77000  110.77000  107.66000  # c,c3h,hc,hc
improper_coeff	 8 aa    0.00000    0.00000   -0.17290  112.67000  112.67000  112.67000  # c1,c,c,c1
improper_coeff	 9 aa    0.00000    0.00000    0.11840  112.67000  110.77000  110.77000  # c1,c,c,hc
improper_coeff	10 aa    0.00000   -0.17290    0.00000  112.67000  112.67000  112.67000  # c1,c,c1,c1
improper_coeff	11 aa    0.00000   -1.31990    0.00000  112.67000  110.77000  110.77000  # c1,c,c1,hc
improper_coeff	12 aa    0.00000   -0.83300    0.00000  112.67000  111.27000  111.27000  # c1,c,c1,oc
improper_coeff	13 aa    0.00000   -1.31990    0.00000  110.77000  112.67000  110.77000  # c1,c,hc,c1
improper_coeff	14 aa    0.00000    2.59260    0.00000  110.77000  111.27000  108.72800  # c1,c,hc,oc
improper_coeff	15 aa    0.00000   -0.83300   -0.83300  111.27000  112.67000  111.27000  # c1,c,o3e,c1
improper_coeff	16 aa    0.00000    2.59260    3.91770  111.27000  110.77000  108.72800  # c1,c,o3e,hc
improper_coeff	17 aa    0.00000   -0.83300    0.00000  111.27000  112.67000  111.27000  # c1,c,oc,c1
improper_coeff	18 aa    0.00000    2.59260    0.00000  111.27000  110.77000  108.72800  # c1,c,oc,hc
improper_coeff	19 aa   -0.17290   -0.17290   -0.17290  112.67000  112.67000  112.67000  # c1,c1,c1,c1
improper_coeff	20 aa   -0.17290   -0.17290   -0.17290  112.67000  112.67000  112.67000  # c1,c1,c1,c3h
improper_coeff	21 aa   -1.31990   -1.31990    0.11840  112.67000  110.77000  110.77000  # c1,c1,c1,hc
improper_coeff	22 aa   -0.83300   -0.83300   -3.57440  112.67000  111.27000  111.27000  # c1,c1,c1,o3e
improper_coeff	23 aa   -0.83300   -0.83300   -3.57440  112.67000  111.27000  111.27000  # c1,c1,c1,oc
improper_coeff	24 aa    0.00000    0.00000   -3.57440  112.67000  111.27000  111.27000  # c1,c1,c1,oh
improper_coeff	25 aa   -1.31990    0.00000    0.11840  112.67000  110.77000  110.77000  # c1,c1,c3h,hc
improper_coeff	26 aa    0.11840    0.00000   -1.31990  110.77000  112.67000  110.77000  # c1,c1,hc,c3h
improper_coeff	27 aa    3.91770    2.59260    0.16890  110.77000  111.27000  108.72800  # c1,c1,hc,o3e
improper_coeff	28 aa    3.91770    2.59260    0.16890  110.77000  111.27000  108.72800  # c1,c1,hc,oc
improper_coeff	29 aa    0.00000    0.00000    0.16890  110.77000  111.27000  108.72800  # c1,c1,hc,oh
improper_coeff	30 aa    0.16890    2.59260    3.91770  111.27000  110.77000  108.72800  # c1,c1,o3e,hc
improper_coeff	31 aa    0.16890    2.59260    3.91770  111.27000  110.77000  108.72800  # c1,c1,oc,hc
improper_coeff	32 aa    0.11840    0.00000    0.00000  110.77000  112.67000  110.77000  # c3h,c,hc,c3h
improper_coeff	33 aa   -3.57440    0.00000   -0.83300  111.27000  112.67000  111.27000  # c3h,c,o3e,c3h
improper_coeff	34 aa    0.00000    2.59260    3.91770  111.27000  110.77000  108.72800  # c3h,c,o3e,hc
improper_coeff	35 aa   -1.31990    0.00000    0.11840  112.67000  110.77000  110.77000  # c3h,c1,c3h,hc
improper_coeff	36 aa   -0.83300    0.00000   -3.57440  112.67000  111.27000  111.27000  # c3h,c1,c3h,o3e
improper_coeff	37 aa    0.16890    2.59260    3.91770  111.27000  110.77000  108.72800  # c3h,c1,o3e,hc
improper_coeff	38 aa    0.00000    2.59260    0.00000  111.27000  110.77000  108.72800  # c3h,c3h,o3e,hc

# ------------------------------- OPT Section -------------------------------
minimize 1.0e-5 1.0e-7 100000 400000
Generated 28 of 28 mixed pair_coeff terms from sixthpower/geometric mixing rule
Step          Temp          E_pair         E_mol          TotEng         Press
0   0             -14.056648      753.53711      739.48046     -3120.1522
Loop time of 0.015391 on 6 procs for 28 steps with 74 atoms

Minimization stats:
  Stopping criterion = linesearch alpha is zero
  Energy initial, next-to-last, final =
  Force two-norm initial, final = 296.60572 138.64492
  Force max component initial, final = 70.301709 99.649067
  Final line search alpha, max atom move = 7.2953977e-13 7.2697957e-11
  Iterations, force evaluations = 28 148

# ------------------------------- Run Section -------------------------------
#

thermo_style custom step temp pe evdwl ecoul ebond eangle edihed eimp density vol
thermo          100

fix Langevin  all langevin 300 300 100.0 482432
fix moveLimit all nve/limit 0.1
run 20000
Generated 28 of 28 mixed pair_coeff terms from sixthpower/geometric mixing rule
Step          Temp          PotEng         E_vdwl         E_coul         E_bond        E_angle        E_dihed        E_impro        Density         Volume
28   0              649.00364      11.949787     -15.92733       26.608199      719.155       -90.845671     -1.9363432      0.099999998    8213.5863
Averages over the last 101 of 202 rows, steps 10100 to 20028:
Temp PotEng E_vdwl E_coul E_bond E_angle E_dihed E_impro Density Volume
306.653 561.397 0.0838619 -22.9305 39.6562 685.774 -137.278 -3.90851 0.1 8213.59
Loop time of 2.64177 on 6 procs for 20000 steps with 74 atoms

unfix Langevin
unfix moveLimit

fix 		relax all npt temp 300.0 300.0 100 iso 1.0 1.0 1000
run 1000
Generated 28 of 28 mixed pair_coeff terms from sixthpower/geometric mixing rule
Step          Temp          PotEng         E_vdwl         E_coul         E_bond        E_angle        E_dihed        E_impro        Density         Volume
20028   268.87146      557.35584      0.44607241    -21.238895      39.401348      670.50437     -128.07712     -3.6799275      0.099999998    8213.5863
Averages over the last 6 of 12 rows, steps 20600 to 21028:
Temp PotEng E_vdwl E_coul E_bond E_angle E_dihed E_impro Density Volume
326.141 558.906 4.70986 -21.2345 39.8066 701.268 -161.159 -4.48462 0.0980152 8380.45
Loop time of 0.20085 on 6 procs for 1000 steps with 74 atoms

unfix relax

molecule 	pre cleaned_pre-mol
Read molecule template pre:
  1 molecules
  0 fragments
  40 atoms with max type 7
  44 bonds with max type 13
  93 angles with max type 35
  162 dihedrals with max type 66
  60 impropers with max type 38
molecule	post cleaned_post-mol
Read molecule template post:
  1 molecules
  0 fragments
  40 atoms with max type 7
  44 bonds with max type 9
  93 angles with max type 33
  165 dihedrals with max type 67
  60 impropers with max type 31

fix		fxrct all bond/react stabilization yes statted_grp .03 		 react rxn1 all 100 0.0 10.0 pre post semi.map stabilize_steps 2000 molecule inter
dynamic group bond_react_MASTER_group defined
dynamic group statted_grp_REACT defined
fix 		npt statted_grp_REACT npt temp 300.0 300.0 100 iso 1.0 1.0 1000
fix 		reacted bond_react_MASTER_group temp/rescale 1 300.0 300.0 1 1

thermo_style custom step temp pe evdwl ecoul ebond eangle edihed eimp density vol f_fxrct[1]
thermo          100

compute 1 all property/local btype batom1 batom2

compute 2 all stress/atom NULL
fix 5 all ave/atom 1 500 1000 c_2[*]

dump DumpPos all custom 1000 dump.pos id type x y z mol  f_5[*]
dump DumpBond all local 1000 bonds.dump index c_1[*]

run 10000

CITE-CITE-CITE-CITE-CITE-CITE-CITE-CITE-CITE-CITE-CITE-CITE-CITE

Your simulation uses code contributions which should be cited:

- fix bond/react: reacter.org doi:10.1016/j.polymer.2017.09.038, doi:10.1021/acs.macromol.0c02012

@Article{Gissinger17,
 author = {J. R. Gissinger and B. D. Jensen and K. E. Wise},
 title = {Modeling Chemical Reactions in Classical Molecular Dynamics Simulations},
 journal = {Polymer},
 year =    2017,
 volume =  128,
 pages =   {211--217}
}

@Article{Gissinger20,
 author = {J. R. Gissinger, B. D. Jensen, K. E. Wise},
 title = {{REACTER}: A Heuristic Method for Reactive Molecular Dynamics},
 journal = {Macromolecules},
 year =    2020,
 volume =  53,
 number =  22,
 pages =   {9953--9961}
}

CITE-CITE-CITE-CITE-CITE-CITE-CITE-CITE-CITE-CITE-CITE-CITE-CITE

Generated 28 of 28 mixed pair_coeff terms from sixthpower/geometric mixing rule
Step          Temp          PotEng         E_vdwl         E_coul         E_bond        E_angle        E_dihed        E_impro        Density         Volume       f_fxrct[1]
21028   324.73683      563.4325       5.2720325     -19.330483      35.497205      709.68419     -163.00586     -4.6845891      0.097496681    8424.4777      0
Averages over the last 51 of 102 rows, steps 26100 to 31028:
Temp PotEng E_vdwl E_coul E_bond E_angle E_dihed E_impro Density Volume f_fxrct[1]
314.081 2490.73 29.5331 -21.3512 2041.78 582.219 -139.222 -2.22745 0.312619 2787.85 0.862745
Loop time of 2.3641 on 6 procs for 10000 steps with 74 atoms

unfix reacted
unfix npt
unfix fxrct

fix		fxrct all bond/react stabilization yes statted_grp .03 		 react rxn1 all 100 0.0 5.0 pre post semi.map stabilize_steps 2000
dynamic group bond_react_MASTER_group defined
dynamic group statted_grp_REACT defined
fix 		npt statted_grp_REACT npt temp 300.0 300.0 100 iso 1.0 1.0 1000
fix 		reacted bond_react_MASTER_group temp/rescale 1 300.0 300.0 1 1

run 200000
Generated 28 of 28 mixed pair_coeff terms from sixthpower/geometric mixing rule
Step          Temp          PotEng         E_vdwl         E_coul         E_bond        E_angle        E_dihed        E_impro        Density         Volume       f_fxrct[1]
31028   298.37593      426.72205     -4.1953766     -15.787387      24.553427      567.70571     -142.10652     -3.4478013      0.31019954     2647.8395      0
Averages over the last 31 of 61 rows, steps 34000 to 37000:
Temp PotEng E_vdwl E_coul E_bond E_angle E_dihed E_impro Density Volume f_fxrct[1]
290.129 420.077 -4.77528 -24.8575 32.2664 550.123 -130.928 -1.75244 0.316415 2673.7 0
