LAMMPS (22 Dec 2022)
# PREREQUISITES:
#
#     You must use moltemplate.sh to create 3 files:
#        system.data  system.in.init  system.in.settings
#     (Follow the instructions in README_setup.sh,
#      or run the file as a script using ./README_setup.sh)

# ------------------------------- Initialization Section --------------------

units real
atom_style full
pair_style lj/class2/coul/cut 10.0
bond_style class2
angle_style class2
dihedral_style class2
improper_style class2

# ------------------------------- Atom Definition Section -------------------

read_data       "pack_mol.data" extra/bond/per/atom 1 extra/angle/per/atom 12 extra/dihedral/per/atom 12 extra/improper/per/atom 12 extra/special/per/atom 12
Reading data file ...
  orthogonal box = (0 0 0) to (47.259173 47.259173 47.259173)
  reading atoms ...
  5021 atoms
  scanning bonds ...
  scanning angles ...
  scanning dihedrals ...
  scanning impropers ...
  reading bonds ...
  5104 bonds
  reading angles ...
  9975 angles
  reading dihedrals ...
  14214 dihedrals
  reading impropers ...
  6384 impropers
Finding 1-2 1-3 1-4 neighbors ...
     4 = max # of 1-2 neighbors
    12 = max # of 1-3 neighbors
    18 = max # of 1-4 neighbors
    34 = max # of special neighbors

include calc.pram

# Masses

mass	1	12.01115	#	c
mass	2	1.00797	#	h
mass	3	1.00797	#	hc
mass	4	15.99940	#	o4e
mass	5	15.99940	#	oc
mass	6	15.99940	#	oh

# Potentials

pair_coeff	1	1	0.05400	4.01000	#	c,c
pair_coeff	2	2	0.02000	2.99500	#	h,h
pair_coeff	3	3	0.02000	2.99500	#	hc,hc
pair_coeff	4	4	0.24000	3.53500	#	o4e,o4e
pair_coeff	5	5	0.24000	3.53500	#	oc,oc
pair_coeff	6	6	0.24000	3.53500	#	oh,oh

# Bond Coeffs

bond_coeff	1	1.53000	299.67000	-501.77000	679.81000	#	c,c
bond_coeff	2	1.10100	345.00000	-691.89000	844.60000	#	c,hc
bond_coeff	3	1.42000	400.39540	-835.19510	1313.01420	#	c,o4e
bond_coeff	4	1.42000	400.39540	-835.19510	1313.01420	#	c,oc
bond_coeff	5	1.42000	400.39540	-835.19510	1313.01420	#	c,oh
bond_coeff	6	0.96000	493.84800	0.00000	0.00000	#	h,oh

# Angle Coeffs

angle_coeff	1	112.67000	39.51600	-7.44300	-9.55830	#	c,c,c
angle_coeff	2	110.77000	41.45300	-10.60400	5.12900	#	c,c,hc
angle_coeff	3	111.27000	54.53810	-8.36420	-13.08380	#	c,c,o4e
angle_coeff	4	111.27000	54.53810	-8.36420	-13.08380	#	c,c,oc
angle_coeff	5	111.27000	54.53810	-8.36420	-13.08380	#	c,c,oh
angle_coeff	6	104.50000	35.74540	-10.00670	-6.27290	#	c,o4e,c
angle_coeff	7	104.50000	35.74540	-10.00670	-6.27290	#	c,oc,c
angle_coeff	8	109.00000	58.50000	0.00000	0.00000	#	c,oh,h
angle_coeff	9	107.66000	39.64100	-12.92100	-2.43180	#	hc,c,hc
angle_coeff	10	108.72800	58.54460	-10.80880	-12.40060	#	hc,c,o4e
angle_coeff	11	108.72800	58.54460	-10.80880	-12.40060	#	hc,c,oc
angle_coeff	12	108.72800	58.54460	-10.80880	-12.40060	#	hc,c,oh

# BondBond Coeffs

angle_coeff	1	bb	0.00000	1.53000	1.53000	#	c,c,c
angle_coeff	2	bb	3.38720	1.53000	1.10100	#	c,c,hc
angle_coeff	3	bb	11.43180	1.53000	1.42000	#	c,c,o4e
angle_coeff	4	bb	11.43180	1.53000	1.42000	#	c,c,oc
angle_coeff	5	bb	11.43180	1.53000	1.42000	#	c,c,oh
angle_coeff	6	bb	-7.11310	1.42000	1.42000	#	c,o4e,c
angle_coeff	7	bb	-7.11310	1.42000	1.42000	#	c,oc,c
angle_coeff	8	bb	0.00000	1.42000	0.96000	#	c,oh,h
angle_coeff	9	bb	5.33160	1.10100	1.10100	#	hc,c,hc
angle_coeff	10	bb	23.19790	1.10100	1.42000	#	hc,c,o4e
angle_coeff	11	bb	23.19790	1.10100	1.42000	#	hc,c,oc
angle_coeff	12	bb	23.19790	1.10100	1.42000	#	hc,c,oh

# BondAngle Coeffs

angle_coeff	1	ba	8.01600	8.01600	1.53000	1.53000	#	c,c,c
angle_coeff	2	ba	20.75400	11.42100	1.53000	1.10100	#	c,c,hc
angle_coeff	3	ba	2.68680	20.40330	1.53000	1.42000	#	c,c,o4e
angle_coeff	4	ba	2.68680	20.40330	1.53000	1.42000	#	c,c,oc
angle_coeff	5	ba	2.68680	20.40330	1.53000	1.42000	#	c,c,oh
angle_coeff	6	ba	-2.81120	-2.81120	1.42000	1.42000	#	c,o4e,c
angle_coeff	7	ba	-2.81120	-2.81120	1.42000	1.42000	#	c,oc,c
angle_coeff	8	ba	0.00000	0.00000	1.42000	0.96000	#	c,oh,h
angle_coeff	9	ba	18.10300	18.10300	1.10100	1.10100	#	hc,c,hc
angle_coeff	10	ba	4.61890	55.32700	1.10100	1.42000	#	hc,c,o4e
angle_coeff	11	ba	4.61890	55.32700	1.10100	1.42000	#	hc,c,oc
angle_coeff	12	ba	4.61890	55.32700	1.10100	1.42000	#	hc,c,oh

# Dihedral Coeffs

dihedral_coeff	1	0.00000	0.00000	0.05140	0.00000	-0.14300	0.00000	#	c,c,c,c
dihedral_coeff	2	0.00000	0.00000	0.03160	0.00000	-0.16810	0.00000	#	c,c,c,hc
dihedral_coeff	3	0.71370	0.00000	0.26600	0.00000	-0.25450	0.00000	#	c,c,c,o4e
dihedral_coeff	4	0.71370	0.00000	0.26600	0.00000	-0.25450	0.00000	#	c,c,c,oc
dihedral_coeff	5	0.71370	0.00000	0.26600	0.00000	-0.25450	0.00000	#	c,c,c,oh
dihedral_coeff	6	-0.52030	0.00000	-0.30280	0.00000	-0.34500	0.00000	#	c,c,o4e,c
dihedral_coeff	7	-0.52030	0.00000	-0.30280	0.00000	-0.34500	0.00000	#	c,c,oc,c
dihedral_coeff	8	0.00000	0.00000	0.00000	0.00000	0.13000	180.00000	#	c,c,oh,h
dihedral_coeff	9	0.53020	0.00000	0.00000	0.00000	-0.39660	0.00000	#	c,o4e,c,hc
dihedral_coeff	10	0.53020	0.00000	0.00000	0.00000	-0.39660	0.00000	#	c,oc,c,hc
dihedral_coeff	11	0.00000	0.00000	0.00000	0.00000	0.13000	180.00000	#	h,oh,c,hc
dihedral_coeff	12	-0.14320	0.00000	0.06170	0.00000	-0.10830	0.00000	#	hc,c,c,hc

# MiddleBondTorsion Coeffs

dihedral_coeff	1	mbt	-17.78700	-7.18770	0.00000	1.53000	#	c,c,c,c
dihedral_coeff	2	mbt	-14.87900	-3.65810	-0.31380	1.53000	#	c,c,c,hc
dihedral_coeff	3	mbt	-21.88420	-7.67640	-0.68680	1.53000	#	c,c,c,o4e
dihedral_coeff	4	mbt	-21.88420	-7.67640	-0.68680	1.53000	#	c,c,c,oc
dihedral_coeff	5	mbt	-21.88420	-7.67640	-0.68680	1.53000	#	c,c,c,oh
dihedral_coeff	6	mbt	-5.92880	-2.70070	-0.31750	1.42000	#	c,c,o4e,c
dihedral_coeff	7	mbt	-5.92880	-2.70070	-0.31750	1.42000	#	c,c,oc,c
dihedral_coeff	8	mbt	0.00000	0.00000	0.00000	1.42000	#	c,c,oh,h
dihedral_coeff	9	mbt	-6.80070	-4.65460	-1.41010	1.42000	#	c,o4e,c,hc
dihedral_coeff	10	mbt	-6.80070	-4.65460	-1.41010	1.42000	#	c,oc,c,hc
dihedral_coeff	11	mbt	0.00000	0.00000	0.00000	1.42000	#	h,oh,c,hc
dihedral_coeff	12	mbt	-14.26100	-0.53220	-0.48640	1.53000	#	hc,c,c,hc

# EndBondTorsion Coeffs

dihedral_coeff	1	ebt	-0.07320	0.00000	0.00000	-0.07320	0.00000	0.00000	1.53000	1.53000	#	c,c,c,c
dihedral_coeff	2	ebt	0.24860	0.24220	-0.09250	0.08140	0.05910	0.22190	1.53000	1.10100	#	c,c,c,hc
dihedral_coeff	3	ebt	-0.31900	0.44110	-0.71740	1.15380	0.84090	-0.91380	1.53000	1.42000	#	c,c,c,o4e
dihedral_coeff	4	ebt	-0.31900	0.44110	-0.71740	1.15380	0.84090	-0.91380	1.53000	1.42000	#	c,c,c,oc
dihedral_coeff	5	ebt	-0.31900	0.44110	-0.71740	1.15380	0.84090	-0.91380	1.53000	1.42000	#	c,c,c,oh
dihedral_coeff	6	ebt	-0.24560	1.05170	-0.77950	0.47410	1.26350	0.55760	1.53000	1.42000	#	c,c,o4e,c
dihedral_coeff	7	ebt	-0.24560	1.05170	-0.77950	0.47410	1.26350	0.55760	1.53000	1.42000	#	c,c,oc,c
dihedral_coeff	8	ebt	0.00000	0.00000	0.00000	0.00000	0.00000	0.00000	1.53000	0.96000	#	c,c,oh,h
dihedral_coeff	9	ebt	-0.16200	0.15640	-1.14080	-0.60540	1.33390	0.96480	1.42000	1.10100	#	c,o4e,c,hc
dihedral_coeff	10	ebt	-0.16200	0.15640	-1.14080	-0.60540	1.33390	0.96480	1.42000	1.10100	#	c,oc,c,hc
dihedral_coeff	11	ebt	0.00000	0.00000	0.00000	0.00000	0.00000	0.00000	0.96000	1.10100	#	h,oh,c,hc
dihedral_coeff	12	ebt	0.21300	0.31200	0.07770	0.21300	0.31200	0.07770	1.10100	1.10100	#	hc,c,c,hc

# AngleTorsion Coeffs

dihedral_coeff	1	at	0.38860	-0.31390	0.13890	0.38860	-0.31390	0.13890	112.67000	112.67000	#	c,c,c,c
dihedral_coeff	2	at	-0.24540	0.00000	-0.11360	0.31130	0.45160	-0.19880	112.67000	110.77000	#	c,c,c,hc
dihedral_coeff	3	at	0.56230	-0.30410	-0.40150	0.96720	-0.75660	-1.23310	112.67000	111.27000	#	c,c,c,o4e
dihedral_coeff	4	at	0.56230	-0.30410	-0.40150	0.96720	-0.75660	-1.23310	112.67000	111.27000	#	c,c,c,oc
dihedral_coeff	5	at	0.56230	-0.30410	-0.40150	0.96720	-0.75660	-1.23310	112.67000	111.27000	#	c,c,c,oh
dihedral_coeff	6	at	-2.74660	1.48770	-0.89550	0.56760	0.94500	0.07030	111.27000	104.50000	#	c,c,o4e,c
dihedral_coeff	7	at	-2.74660	1.48770	-0.89550	0.56760	0.94500	0.07030	111.27000	104.50000	#	c,c,oc,c
dihedral_coeff	8	at	0.00000	0.00000	0.00000	0.00000	0.00000	0.00000	111.27000	109.00000	#	c,c,oh,h
dihedral_coeff	9	at	-0.77770	0.43400	-0.66530	-1.82340	1.63930	0.51440	104.50000	108.72800	#	c,o4e,c,hc
dihedral_coeff	10	at	-0.77770	0.43400	-0.66530	-1.82340	1.63930	0.51440	104.50000	108.72800	#	c,oc,c,hc
dihedral_coeff	11	at	0.00000	0.00000	0.00000	0.00000	0.00000	0.00000	109.00000	108.72800	#	h,oh,c,hc
dihedral_coeff	12	at	-0.80850	0.55690	-0.24660	-0.80850	0.55690	-0.24660	110.77000	110.77000	#	hc,c,c,hc

# AngleAngleTorsion Coeffs

dihedral_coeff	1	aat	-22.04500	112.67000	112.67000	#	c,c,c,c
dihedral_coeff	2	aat	-16.16400	112.67000	110.77000	#	c,c,c,hc
dihedral_coeff	3	aat	-29.04200	112.67000	111.27000	#	c,c,c,o4e
dihedral_coeff	4	aat	-29.04200	112.67000	111.27000	#	c,c,c,oc
dihedral_coeff	5	aat	-29.04200	112.67000	111.27000	#	c,c,c,oh
dihedral_coeff	6	aat	-19.00590	111.27000	104.50000	#	c,c,o4e,c
dihedral_coeff	7	aat	-19.00590	111.27000	104.50000	#	c,c,oc,c
dihedral_coeff	8	aat	0.00000	111.27000	109.00000	#	c,c,oh,h
dihedral_coeff	9	aat	-16.44380	104.50000	108.72800	#	c,o4e,c,hc
dihedral_coeff	10	aat	-16.44380	104.50000	108.72800	#	c,oc,c,hc
dihedral_coeff	11	aat	0.00000	109.00000	108.72800	#	h,oh,c,hc
dihedral_coeff	12	aat	-12.56400	110.77000	110.77000	#	hc,c,c,hc

# BondBond13 Coeffs

dihedral_coeff	1	bb13	0.00000	1.53000	1.53000	#	c,c,c,c
dihedral_coeff	2	bb13	0.00000	1.53000	1.10100	#	c,c,c,hc
dihedral_coeff	3	bb13	0.00000	1.53000	1.42000	#	c,c,c,o4e
dihedral_coeff	4	bb13	0.00000	1.53000	1.42000	#	c,c,c,oc
dihedral_coeff	5	bb13	0.00000	1.53000	1.42000	#	c,c,c,oh
dihedral_coeff	6	bb13	0.00000	1.53000	1.42000	#	c,c,o4e,c
dihedral_coeff	7	bb13	0.00000	1.53000	1.42000	#	c,c,oc,c
dihedral_coeff	8	bb13	0.00000	1.53000	0.96000	#	c,c,oh,h
dihedral_coeff	9	bb13	0.00000	1.42000	1.10100	#	c,o4e,c,hc
dihedral_coeff	10	bb13	0.00000	1.42000	1.10100	#	c,oc,c,hc
dihedral_coeff	11	bb13	0.00000	0.96000	1.10100	#	h,oh,c,hc
dihedral_coeff	12	bb13	0.00000	1.10100	1.10100	#	hc,c,c,hc

# Improper Coeffs

improper_coeff	1	0.00000	0.00000	#	c,c,c,c
improper_coeff	2	0.00000	0.00000	#	c,c,c,hc
improper_coeff	3	0.00000	0.00000	#	c,c,hc,hc
improper_coeff	4	0.00000	0.00000	#	c,c,hc,o4e
improper_coeff	5	0.00000	0.00000	#	c,c,hc,oc
improper_coeff	6	0.00000	0.00000	#	c,c,o4e,hc
improper_coeff	7	0.00000	0.00000	#	c,c,oc,hc
improper_coeff	8	0.00000	0.00000	#	c,c,oh,hc
improper_coeff	9	0.00000	0.00000	#	c,hc,hc,hc
improper_coeff	10	0.00000	0.00000	#	c,hc,hc,o4e
improper_coeff	11	0.00000	0.00000	#	c,hc,hc,oc
improper_coeff	12	0.00000	0.00000	#	c,hc,hc,oh

# AngleAngle Coeffs

improper_coeff	1	aa	-0.17290	-0.17290	-0.17290	112.67000	112.67000	112.67000	#	c,c,c,c
improper_coeff	2	aa	-1.31990	-1.31990	0.11840	112.67000	110.77000	110.77000	#	c,c,c,hc
improper_coeff	3	aa	0.27380	-0.48250	0.27380	110.77000	110.77000	107.66000	#	c,c,hc,hc
improper_coeff	4	aa	3.91770	2.59260	0.16890	110.77000	111.27000	108.72800	#	c,c,hc,o4e
improper_coeff	5	aa	3.91770	2.59260	0.16890	110.77000	111.27000	108.72800	#	c,c,hc,oc
improper_coeff	6	aa	0.16890	2.59260	3.91770	111.27000	110.77000	108.72800	#	c,c,o4e,hc
improper_coeff	7	aa	0.16890	2.59260	3.91770	111.27000	110.77000	108.72800	#	c,c,oc,hc
improper_coeff	8	aa	0.16890	2.59260	3.91770	111.27000	110.77000	108.72800	#	c,c,oh,hc
improper_coeff	9	aa	-0.31570	-0.31570	-0.31570	107.66000	107.66000	107.66000	#	c,hc,hc,hc
improper_coeff	10	aa	2.42590	2.42590	2.12830	107.66000	108.72800	108.72800	#	c,hc,hc,o4e
improper_coeff	11	aa	2.42590	2.42590	2.12830	107.66000	108.72800	108.72800	#	c,hc,hc,oc
improper_coeff	12	aa	2.42590	2.42590	2.12830	107.66000	108.72800	108.72800	#	c,hc,hc,oh

# ------------------------------- OPT Section -------------------------------
minimize 1.0e-5 1.0e-7 100000 400000
Generated 15 of 15 mixed pair_coeff terms from sixthpower/geometric mixing rule
Step          Temp          E_pair         E_mol          TotEng         Press
0   0             -111.49712      6914.0793      6802.5822     -2884.4124
Loop time of 1.68402 on 6 procs for 51 steps with 5021 atoms

Minimization stats:
  Stopping criterion = linesearch alpha is zero
  Energy initial, next-to-last, final =
  Force two-norm initial, final = 2341.0569 149.0717
  Force max component initial, final = 114.45298 9.274248
  Final line search alpha, max atom move = 5.0524794e-13 4.6857947e-12
  Iterations, force evaluations = 51 205

# ------------------------------- Run Section -------------------------------
#

thermo_style custom step temp pe evdwl ecoul ebond eangle edihed eimp density vol
thermo          100

fix Langevin  all langevin 300 300 100.0 482432
fix moveLimit all nve/limit 0.1
run 20000
Generated 15 of 15 mixed pair_coeff terms from sixthpower/geometric mixing rule
Step          Temp          PotEng         E_vdwl         E_coul         E_bond        E_angle        E_dihed        E_impro        Density         Volume
51   0              654.21379     -925.17756     -172.5205       68.633426      7204.1421     -5482.4315     -38.432109      0.44999999     105550.03
Averages over the last 101 of 202 rows, steps 10100 to 20051:
Temp PotEng E_vdwl E_coul E_bond E_angle E_dihed E_impro Density Volume
300.936 3421.42 -1037.84 -405.911 1682.03 8906.02 -5670.27 -52.6078 0.45 105550
Loop time of 122.736 on 6 procs for 20000 steps with 5021 atoms

unfix Langevin
unfix moveLimit

fix 		relax all npt temp 300.0 300.0 100 iso 1.0 1.0 1000
run 10000
Generated 15 of 15 mixed pair_coeff terms from sixthpower/geometric mixing rule
Step          Temp          PotEng         E_vdwl         E_coul         E_bond        E_angle        E_dihed        E_impro        Density         Volume
20051   304.11355      3298.2488     -1051.786      -496.0585       1694.6193      8932.6578     -5728.3875     -52.796367      0.44999999     105550.03
Averages over the last 51 of 102 rows, steps 25100 to 30051:
Temp PotEng E_vdwl E_coul E_bond E_angle E_dihed E_impro Density Volume
299.885 2692.83 -1479.09 -557.011 1586.73 8914.06 -5719.56 -52.3012 0.673568 70742.7
Loop time of 68.5119 on 6 procs for 10000 steps with 5021 atoms

unfix relax

molecule 	pre cleaned_pre-mol
Read molecule template pre:
  1 molecules
  0 fragments
  42 atoms with max type 5
  41 bonds with max type 4
  76 angles with max type 11
  105 dihedrals with max type 12
  48 impropers with max type 11
molecule	post cleaned_post-mol
Read molecule template post:
  1 molecules
  0 fragments
  42 atoms with max type 5
  41 bonds with max type 4
  76 angles with max type 11
  105 dihedrals with max type 12
  48 impropers with max type 11

fix		fxrct all bond/react stabilization yes statted_grp .03 		 react rxn1 all 100 0.0 10.0 pre post semi.map stabilize_steps 1000 molecule inter
dynamic group bond_react_MASTER_group defined
dynamic group statted_grp_REACT defined
fix 		1 statted_grp_REACT npt temp 300.0 300.0 100 iso 1.0 1.0 1000

fix 		4 bond_react_MASTER_group temp/rescale 1 300.0 300.0 1 1

thermo_style custom step temp pe evdwl ecoul ebond eangle edihed eimp density vol f_fxrct[1]
thermo          100

compute 1 all property/local btype batom1 batom2

compute 2 all stress/atom NULL
fix 5 all ave/atom 1 500 1000 c_2[*]

dump DumpPos all custom 1000 dump.pos id type x y z mol  f_5[*]
dump DumpBond all local 1000 bonds.dump index c_1[*]

run 200000

CITE-CITE-CITE-CITE-CITE-CITE-CITE-CITE-CITE-CITE-CITE-CITE-CITE

Your simulation uses code contributions which should be cited:

- fix bond/react: reacter.org doi:10.1016/j.polymer.2017.09.038, doi:10.1021/acs.macromol.0c02012

@Article{Gissinger17,
 author = {J. R. Gissinger and B. D. Jensen and K. E. Wise},
 title = {Modeling Chemical Reactions in Classical Molecular Dynamics Simulations},
 journal = {Polymer},
 year =    2017,
 volume =  128,
 pages =   {211--217}
}

@Article{Gissinger20,
 author = {J. R. Gissinger, B. D. Jensen, K. E. Wise},
 title = {{REACTER}: A Heuristic Method for Reactive Molecular Dynamics},
 journal = {Macromolecules},
 year =    2020,
 volume =  53,
 number =  22,
 pages =   {9953--9961}
}

CITE-CITE-CITE-CITE-CITE-CITE-CITE-CITE-CITE-CITE-CITE-CITE-CITE

Generated 15 of 15 mixed pair_coeff terms from sixthpower/geometric mixing rule
Step          Temp          PotEng         E_vdwl         E_coul         E_bond        E_angle        E_dihed        E_impro        Density         Volume       f_fxrct[1]
30051   294.95232      2514.3733     -1580.2918     -607.66755      1565.3421      8984.8453     -5793.5605     -54.294192      0.73412227     64699.73       0
Averages over the last 1001 of 2002 rows, steps 130100 to 230051:
Temp PotEng E_vdwl E_coul E_bond E_angle E_dihed E_impro Density Volume f_fxrct[1]
300.275 379.754 -1859.98 -801.23 1655.24 6050.68 -4633.07 -31.8832 0.967453 49097 81
Loop time of 2082.69 on 6 procs for 200000 steps with 5021 atoms
