LAMMPS (22 Dec 2022)
# PREREQUISITES:
#
#     You must use moltemplate.sh to create 3 files:
#        system.data  system.in.init  system.in.settings
#     (Follow the instructions in README_setup.sh,
#      or run the file as a script using ./README_setup.sh)

# ------------------------------- Initialization Section --------------------

units real
atom_style full
pair_style lj/class2/coul/long 10.0 10.0
bond_style class2
angle_style class2
dihedral_style class2
improper_style class2
kspace_style pppm/cg 0.001

pair_modify     mix sixthpower tail yes
special_bonds   lj/coul 0 0 1

# ------------------------------- Atom Definition Section -------------------

read_data       "reacted_lmp.data"
Reading data file ...
  orthogonal box = (6.100545 6.100545 6.100545) to (45.040438 45.040438 45.040438)
  reading atoms ...
  5000 atoms
  reading velocities ...
  5000 velocities
  scanning bonds ...
  scanning angles ...
  scanning dihedrals ...
  scanning impropers ...
  reading bonds ...
  5342 bonds
  reading angles ...
  9512 angles
  reading dihedrals ...
  13457 dihedrals
  reading impropers ...
  4640 impropers
Finding 1-2 1-3 1-4 neighbors ...
     4 = max # of 1-2 neighbors
     7 = max # of 1-3 neighbors
    11 = max # of special neighbors

include calc.pram

# Masses

mass		1    12.01115  # c
mass		2    12.01115  # c1
mass		3    12.01115  # c3h
mass		4    12.01115  # cp
mass		5     1.00797  # h
mass		6     1.00797  # hc
mass		7    15.99940  # o3e
mass		8    15.99940  # oc
mass		9    15.99940  # oh

# Potentials

pair_coeff	 1  1    0.05400    4.01000  # c,c
pair_coeff	 2  2    0.05400    4.01000  # c1,c1
pair_coeff	 3  3    0.05400    4.01000  # c3h,c3h
pair_coeff	 4  4    0.06400    4.01000  # cp,cp
pair_coeff	 5  5    0.02000    2.99500  # h,h
pair_coeff	 6  6    0.02000    2.99500  # hc,hc
pair_coeff	 7  7    0.24000    3.53500  # o3e,o3e
pair_coeff	 8  8    0.24000    3.53500  # oc,oc
pair_coeff	 9  9    0.24000    3.53500  # oh,oh

# Bond Coeffs

bond_coeff	 1    1.53000  299.67000 -501.77000  679.81000  # c,c
bond_coeff	 2    1.53000  299.67000 -501.77000  679.81000  # c,c1
bond_coeff	 3    1.53000  299.67000 -501.77000  679.81000  # c,c3h
bond_coeff	 4    1.50100  321.90210 -521.82080  572.16280  # c,cp
bond_coeff	 5    1.10100  345.00000 -691.89000  844.60000  # c,hc
bond_coeff	 6    1.42000  400.39540 -835.19510 1313.01420  # c,o3e
bond_coeff	 7    1.42000  400.39540 -835.19510 1313.01420  # c,oc
bond_coeff	 8    1.42000  400.39540 -835.19510 1313.01420  # c,oh
bond_coeff	 9    1.10100  345.00000 -691.89000  844.60000  # c1,hc
bond_coeff	10    1.42000  400.39540 -835.19510 1313.01420  # c1,oc
bond_coeff	11    1.10100  345.00000 -691.89000  844.60000  # c3h,hc
bond_coeff	12    1.42000  400.39540 -835.19510 1313.01420  # c3h,o3e
bond_coeff	13    1.41700  470.83610 -627.61790 1327.63450  # cp,cp
bond_coeff	14    1.09820  372.82510 -803.45260  894.31730  # cp,hc
bond_coeff	15    1.37680  428.87980 -738.23510 1114.96550  # cp,oc
bond_coeff	16    0.96000  493.84800    0.00000    0.00000  # h,oh

# Angle Coeffs

angle_coeff	 1  112.67000   39.51600   -7.44300   -9.55830  # c,c,c
angle_coeff	 2  110.77000   41.45300  -10.60400    5.12900  # c,c,hc
angle_coeff	 3  111.27000   54.53810   -8.36420  -13.08380  # c,c,oc
angle_coeff	 4  112.67000   39.51600   -7.44300   -9.55830  # c,c1,c
angle_coeff	 5  110.77000   41.45300  -10.60400    5.12900  # c,c1,hc
angle_coeff	 6  111.27000   54.53810   -8.36420  -13.08380  # c,c1,oc
angle_coeff	 7  112.67000   39.51600   -7.44300   -9.55830  # c,c3h,c
angle_coeff	 8  110.77000   41.45300  -10.60400    5.12900  # c,c3h,hc
angle_coeff	 9  111.27000   54.53810   -8.36420  -13.08380  # c,c3h,o3e
angle_coeff	10  120.05000   44.71480  -22.73520    0.00000  # c,cp,cp
angle_coeff	11  104.50000   35.74540  -10.00670   -6.27290  # c,o3e,c3h
angle_coeff	12  104.50000   35.74540  -10.00670   -6.27290  # c,oc,c1
angle_coeff	13  102.96950   38.97390   -6.25950   -8.17100  # c,oc,cp
angle_coeff	14  109.00000   58.50000    0.00000    0.00000  # c,oh,h
angle_coeff	15  110.77000   41.45300  -10.60400    5.12900  # c1,c,hc
angle_coeff	16  111.27000   54.53810   -8.36420  -13.08380  # c1,c,oc
angle_coeff	17  111.27000   54.53810   -8.36420  -13.08380  # c1,c,oh
angle_coeff	18  110.77000   41.45300  -10.60400    5.12900  # c3h,c,hc
angle_coeff	19  111.27000   54.53810   -8.36420  -13.08380  # c3h,c,o3e
angle_coeff	20  111.27000   54.53810   -8.36420  -13.08380  # c3h,c,oc
angle_coeff	21  111.00000   44.32340   -9.44540    0.00000  # cp,c,cp
angle_coeff	22  111.00000   44.32340   -9.44540    0.00000  # cp,c,hc
angle_coeff	23  118.90000   61.02260  -34.99310    0.00000  # cp,cp,cp
angle_coeff	24  117.94000   35.15580  -12.46820    0.00000  # cp,cp,hc
angle_coeff	25  123.42000   73.67810  -21.67870    0.00000  # cp,cp,oc
angle_coeff	26  107.66000   39.64100  -12.92100   -2.43180  # hc,c,hc
angle_coeff	27  108.72800   58.54460  -10.80880  -12.40060  # hc,c,o3e
angle_coeff	28  108.72800   58.54460  -10.80880  -12.40060  # hc,c,oc
angle_coeff	29  108.72800   58.54460  -10.80880  -12.40060  # hc,c,oh
angle_coeff	30  108.72800   58.54460  -10.80880  -12.40060  # hc,c1,oc
angle_coeff	31  108.72800   58.54460  -10.80880  -12.40060  # hc,c3h,o3e

# BondBond Coeffs

angle_coeff	 1 bb    0.00000    1.53000    1.53000  # c,c,c
angle_coeff	 2 bb    3.38720    1.53000    1.10100  # c,c,hc
angle_coeff	 3 bb   11.43180    1.53000    1.42000  # c,c,oc
angle_coeff	 4 bb    0.00000    1.53000    1.53000  # c,c1,c
angle_coeff	 5 bb    3.38720    1.53000    1.10100  # c,c1,hc
angle_coeff	 6 bb   11.43180    1.53000    1.42000  # c,c1,oc
angle_coeff	 7 bb    0.00000    1.53000    1.53000  # c,c3h,c
angle_coeff	 8 bb    3.38720    1.53000    1.10100  # c,c3h,hc
angle_coeff	 9 bb   11.43180    1.53000    1.42000  # c,c3h,o3e
angle_coeff	10 bb   12.06760    1.50100    1.41700  # c,cp,cp
angle_coeff	11 bb   -7.11310    1.42000    1.42000  # c,o3e,c3h
angle_coeff	12 bb   -7.11310    1.42000    1.42000  # c,oc,c1
angle_coeff	13 bb    0.00000    1.42000    1.37680  # c,oc,cp
angle_coeff	14 bb    0.00000    1.42000    0.96000  # c,oh,h
angle_coeff	15 bb    3.38720    1.53000    1.10100  # c1,c,hc
angle_coeff	16 bb   11.43180    1.53000    1.42000  # c1,c,oc
angle_coeff	17 bb   11.43180    1.53000    1.42000  # c1,c,oh
angle_coeff	18 bb    3.38720    1.53000    1.10100  # c3h,c,hc
angle_coeff	19 bb   11.43180    1.53000    1.42000  # c3h,c,o3e
angle_coeff	20 bb   11.43180    1.53000    1.42000  # c3h,c,oc
angle_coeff	21 bb    0.00000    1.50100    1.50100  # cp,c,cp
angle_coeff	22 bb    2.91680    1.50100    1.10100  # cp,c,hc
angle_coeff	23 bb   68.28560    1.41700    1.41700  # cp,cp,cp
angle_coeff	24 bb    1.07950    1.41700    1.09820  # cp,cp,hc
angle_coeff	25 bb   48.47540    1.41700    1.37680  # cp,cp,oc
angle_coeff	26 bb    5.33160    1.10100    1.10100  # hc,c,hc
angle_coeff	27 bb   23.19790    1.10100    1.42000  # hc,c,o3e
angle_coeff	28 bb   23.19790    1.10100    1.42000  # hc,c,oc
angle_coeff	29 bb   23.19790    1.10100    1.42000  # hc,c,oh
angle_coeff	30 bb   23.19790    1.10100    1.42000  # hc,c1,oc
angle_coeff	31 bb   23.19790    1.10100    1.42000  # hc,c3h,o3e

# BondAngle Coeffs

angle_coeff	 1 ba    8.01600    8.01600    1.53000    1.53000  # c,c,c
angle_coeff	 2 ba   20.75400   11.42100    1.53000    1.10100  # c,c,hc
angle_coeff	 3 ba   20.40330    2.68680    1.53000    1.42000  # c,c,oc
angle_coeff	 4 ba    8.01600    8.01600    1.53000    1.53000  # c,c1,c
angle_coeff	 5 ba   20.75400   11.42100    1.53000    1.10100  # c,c1,hc
angle_coeff	 6 ba   20.40330    2.68680    1.53000    1.42000  # c,c1,oc
angle_coeff	 7 ba    8.01600    8.01600    1.53000    1.53000  # c,c3h,c
angle_coeff	 8 ba   20.75400   11.42100    1.53000    1.10100  # c,c3h,hc
angle_coeff	 9 ba    2.68680   20.40330    1.53000    1.42000  # c,c3h,o3e
angle_coeff	10 ba   31.07710   47.05790    1.50100    1.41700  # c,cp,cp
angle_coeff	11 ba   -2.81120   -2.81120    1.42000    1.42000  # c,o3e,c3h
angle_coeff	12 ba   -2.81120   -2.81120    1.42000    1.42000  # c,oc,c1
angle_coeff	13 ba    0.00000    0.00000    1.42000    1.37680  # c,oc,cp
angle_coeff	14 ba    0.00000    0.00000    1.42000    0.96000  # c,oh,h
angle_coeff	15 ba   11.42100   20.75400    1.53000    1.10100  # c1,c,hc
angle_coeff	16 ba   20.40330    2.68680    1.53000    1.42000  # c1,c,oc
angle_coeff	17 ba   20.40330    2.68680    1.53000    1.42000  # c1,c,oh
angle_coeff	18 ba   11.42100   20.75400    1.53000    1.10100  # c3h,c,hc
angle_coeff	19 ba    2.68680   20.40330    1.53000    1.42000  # c3h,c,o3e
angle_coeff	20 ba   20.40330    2.68680    1.53000    1.42000  # c3h,c,oc
angle_coeff	21 ba    0.00000    0.00000    1.50100    1.50100  # cp,c,cp
angle_coeff	22 ba   26.46080   11.77170    1.50100    1.10100  # cp,c,hc
angle_coeff	23 ba   28.87080   28.87080    1.41700    1.41700  # cp,cp,cp
angle_coeff	24 ba   20.00330   24.21830    1.41700    1.09820  # cp,cp,hc
angle_coeff	25 ba   58.47900  107.68060    1.41700    1.37680  # cp,cp,oc
angle_coeff	26 ba   18.10300   18.10300    1.10100    1.10100  # hc,c,hc
angle_coeff	27 ba    4.61890   55.32700    1.10100    1.42000  # hc,c,o3e
angle_coeff	28 ba   55.32700    4.61890    1.10100    1.42000  # hc,c,oc
angle_coeff	29 ba    4.61890   55.32700    1.10100    1.42000  # hc,c,oh
angle_coeff	30 ba   55.32700    4.61890    1.10100    1.42000  # hc,c1,oc
angle_coeff	31 ba    4.61890   55.32700    1.10100    1.42000  # hc,c3h,o3e

# Dihedral Coeffs

dihedral_coeff	 1    0.00000    0.00000    0.03160    0.00000   -0.16810    0.00000  # c,c,c,hc
dihedral_coeff	 2    0.71370    0.00000    0.26600    0.00000   -0.25450    0.00000  # c,c,c,oc
dihedral_coeff	 3   -0.52030    0.00000   -0.30280    0.00000   -0.34500    0.00000  # c,c,oc,c1
dihedral_coeff	 4    0.00000    0.00000    0.00000    0.00000    0.13000  180.00000  # c,c,oc,cp
dihedral_coeff	 5    0.00000    0.00000    0.03160    0.00000   -0.16810    0.00000  # c,c1,c,hc
dihedral_coeff	 6    0.71370    0.00000    0.26600    0.00000   -0.25450    0.00000  # c,c1,c,oc
dihedral_coeff	 7    0.71370    0.00000    0.26600    0.00000   -0.25450    0.00000  # c,c1,c,oh
dihedral_coeff	 8   -0.52030    0.00000   -0.30280    0.00000   -0.34500    0.00000  # c,c1,oc,c
dihedral_coeff	 9    0.00000    0.00000    0.03160    0.00000   -0.16810    0.00000  # c,c3h,c,hc
dihedral_coeff	10    0.71370    0.00000    0.26600    0.00000   -0.25450    0.00000  # c,c3h,c,o3e
dihedral_coeff	11    0.71370    0.00000    0.26600    0.00000   -0.25450    0.00000  # c,c3h,c,oc
dihedral_coeff	12   -0.52030    0.00000   -0.30280    0.00000   -0.34500    0.00000  # c,c3h,o3e,c
dihedral_coeff	13    0.00000    0.00000    4.40720    0.00000    0.00000    0.00000  # c,cp,cp,cp
dihedral_coeff	14    0.00000    0.00000    1.55900    0.00000    0.00000    0.00000  # c,cp,cp,hc
dihedral_coeff	15    0.53020    0.00000    0.00000    0.00000   -0.39660    0.00000  # c,o3e,c3h,hc
dihedral_coeff	16    0.53020    0.00000    0.00000    0.00000   -0.39660    0.00000  # c,oc,c1,hc
dihedral_coeff	17    0.00000    0.00000    1.50000    0.00000    0.00000    0.00000  # c,oc,cp,cp
dihedral_coeff	18   -0.52030    0.00000   -0.30280    0.00000   -0.34500    0.00000  # c1,c,oc,c1
dihedral_coeff	19    0.00000    0.00000    0.00000    0.00000    0.13000  180.00000  # c1,c,oc,cp
dihedral_coeff	20    0.00000    0.00000    0.00000    0.00000    0.13000  180.00000  # c1,c,oh,h
dihedral_coeff	21    0.53020    0.00000    0.00000    0.00000   -0.39660    0.00000  # c1,oc,c,hc
dihedral_coeff	22    0.00000    0.00000    0.00000    0.00000    0.13000  180.00000  # c3h,c,oc,cp
dihedral_coeff	23    0.53020    0.00000    0.00000    0.00000   -0.39660    0.00000  # c3h,o3e,c,hc
dihedral_coeff	24   -0.28020    0.00000   -0.06780    0.00000   -0.01220    0.00000  # cp,c,cp,cp
dihedral_coeff	25   -0.28010    0.00000   -0.06780    0.00000   -0.01220    0.00000  # cp,cp,c,hc
dihedral_coeff	26    8.36670    0.00000    1.19320    0.00000    0.00000    0.00000  # cp,cp,cp,cp
dihedral_coeff	27    0.00000    0.00000    3.96610    0.00000    0.00000    0.00000  # cp,cp,cp,hc
dihedral_coeff	28    0.00000    0.00000    4.84980    0.00000    0.00000    0.00000  # cp,cp,cp,oc
dihedral_coeff	29    0.95130    0.00000    0.11550    0.00000    0.07200    0.00000  # cp,oc,c,hc
dihedral_coeff	30    0.00000    0.00000    0.00000    0.00000    0.13000  180.00000  # h,oh,c,hc
dihedral_coeff	31   -0.14320    0.00000    0.06170    0.00000   -0.10830    0.00000  # hc,c,c,hc
dihedral_coeff	32   -0.14350    0.00000    0.25300    0.00000   -0.09050    0.00000  # hc,c,c,oc
dihedral_coeff	33   -0.14320    0.00000    0.06170    0.00000   -0.10830    0.00000  # hc,c,c1,hc
dihedral_coeff	34   -0.14350    0.00000    0.25300    0.00000   -0.09050    0.00000  # hc,c,c1,oc
dihedral_coeff	35   -0.14320    0.00000    0.06170    0.00000   -0.10830    0.00000  # hc,c,c3h,hc
dihedral_coeff	36   -0.14350    0.00000    0.25300    0.00000   -0.09050    0.00000  # hc,c,c3h,o3e
dihedral_coeff	37   -0.14350    0.00000    0.25300    0.00000   -0.09050    0.00000  # hc,c1,c,oc
dihedral_coeff	38   -0.14350    0.00000    0.25300    0.00000   -0.09050    0.00000  # hc,c1,c,oh
dihedral_coeff	39   -0.14350    0.00000    0.25300    0.00000   -0.09050    0.00000  # hc,c3h,c,o3e
dihedral_coeff	40   -0.14350    0.00000    0.25300    0.00000   -0.09050    0.00000  # hc,c3h,c,oc
dihedral_coeff	41    0.00000    0.00000    1.87690    0.00000    0.00000    0.00000  # hc,cp,cp,hc
dihedral_coeff	42    0.00000    0.00000    1.72340    0.00000    0.00000    0.00000  # hc,cp,cp,oc
dihedral_coeff	43   -0.18200    0.00000   -0.10840    0.00000   -0.70470    0.00000  # o3e,c3h,c,oc
dihedral_coeff	44   -0.18200    0.00000   -0.10840    0.00000   -0.70470    0.00000  # oc,c,c1,oc
dihedral_coeff	45   -0.18200    0.00000   -0.10840    0.00000   -0.70470    0.00000  # oc,c1,c,oh

# MiddleBondTorsion Coeffs

dihedral_coeff	 1 mbt  -14.87900   -3.65810   -0.31380    1.53000  # c,c,c,hc
dihedral_coeff	 2 mbt  -21.88420   -7.67640   -0.68680    1.53000  # c,c,c,oc
dihedral_coeff	 3 mbt   -5.92880   -2.70070   -0.31750    1.42000  # c,c,oc,c1
dihedral_coeff	 4 mbt    0.00000    0.00000    0.00000    1.42000  # c,c,oc,cp
dihedral_coeff	 5 mbt  -14.87900   -3.65810   -0.31380    1.53000  # c,c1,c,hc
dihedral_coeff	 6 mbt  -21.88420   -7.67640   -0.68680    1.53000  # c,c1,c,oc
dihedral_coeff	 7 mbt  -21.88420   -7.67640   -0.68680    1.53000  # c,c1,c,oh
dihedral_coeff	 8 mbt   -5.92880   -2.70070   -0.31750    1.42000  # c,c1,oc,c
dihedral_coeff	 9 mbt  -14.87900   -3.65810   -0.31380    1.53000  # c,c3h,c,hc
dihedral_coeff	10 mbt  -21.88420   -7.67640   -0.68680    1.53000  # c,c3h,c,o3e
dihedral_coeff	11 mbt  -21.88420   -7.67640   -0.68680    1.53000  # c,c3h,c,oc
dihedral_coeff	12 mbt   -5.92880   -2.70070   -0.31750    1.42000  # c,c3h,o3e,c
dihedral_coeff	13 mbt    0.00000    9.17920    0.00000    1.41700  # c,cp,cp,cp
dihedral_coeff	14 mbt    0.00000    3.94210    0.00000    1.41700  # c,cp,cp,hc
dihedral_coeff	15 mbt   -6.80070   -4.65460   -1.41010    1.42000  # c,o3e,c3h,hc
dihedral_coeff	16 mbt   -6.80070   -4.65460   -1.41010    1.42000  # c,oc,c1,hc
dihedral_coeff	17 mbt    0.00000    0.00000    0.00000    1.37680  # c,oc,cp,cp
dihedral_coeff	18 mbt   -5.92880   -2.70070   -0.31750    1.42000  # c1,c,oc,c1
dihedral_coeff	19 mbt    0.00000    0.00000    0.00000    1.42000  # c1,c,oc,cp
dihedral_coeff	20 mbt    0.00000    0.00000    0.00000    1.42000  # c1,c,oh,h
dihedral_coeff	21 mbt   -6.80070   -4.65460   -1.41010    1.42000  # c1,oc,c,hc
dihedral_coeff	22 mbt    0.00000    0.00000    0.00000    1.42000  # c3h,c,oc,cp
dihedral_coeff	23 mbt   -6.80070   -4.65460   -1.41010    1.42000  # c3h,o3e,c,hc
dihedral_coeff	24 mbt    0.00000    0.00000    0.00000    1.50100  # cp,c,cp,cp
dihedral_coeff	25 mbt   -5.56790    1.40830    0.30100    1.50100  # cp,cp,c,hc
dihedral_coeff	26 mbt   27.59890   -2.31200    0.00000    1.41700  # cp,cp,cp,cp
dihedral_coeff	27 mbt    0.00000   -1.15210    0.00000    1.41700  # cp,cp,cp,hc
dihedral_coeff	28 mbt    0.00000    4.82550    0.00000    1.41700  # cp,cp,cp,oc
dihedral_coeff	29 mbt    0.00000    0.00000    0.00000    1.42000  # cp,oc,c,hc
dihedral_coeff	30 mbt    0.00000    0.00000    0.00000    1.42000  # h,oh,c,hc
dihedral_coeff	31 mbt  -14.26100   -0.53220   -0.48640    1.53000  # hc,c,c,hc
dihedral_coeff	32 mbt  -16.79750   -1.22960   -0.27500    1.53000  # hc,c,c,oc
dihedral_coeff	33 mbt  -14.26100   -0.53220   -0.48640    1.53000  # hc,c,c1,hc
dihedral_coeff	34 mbt  -16.79750   -1.22960   -0.27500    1.53000  # hc,c,c1,oc
dihedral_coeff	35 mbt  -14.26100   -0.53220   -0.48640    1.53000  # hc,c,c3h,hc
dihedral_coeff	36 mbt  -16.79750   -1.22960   -0.27500    1.53000  # hc,c,c3h,o3e
dihedral_coeff	37 mbt  -16.79750   -1.22960   -0.27500    1.53000  # hc,c1,c,oc
dihedral_coeff	38 mbt  -16.79750   -1.22960   -0.27500    1.53000  # hc,c1,c,oh
dihedral_coeff	39 mbt  -16.79750   -1.22960   -0.27500    1.53000  # hc,c3h,c,o3e
dihedral_coeff	40 mbt  -16.79750   -1.22960   -0.27500    1.53000  # hc,c3h,c,oc
dihedral_coeff	41 mbt    0.00000    4.82280    0.00000    1.41700  # hc,cp,cp,hc
dihedral_coeff	42 mbt    0.00000    5.54320    0.00000    1.41700  # hc,cp,cp,oc
dihedral_coeff	43 mbt  -17.25850   -3.61570   -0.83640    1.53000  # o3e,c3h,c,oc
dihedral_coeff	44 mbt  -17.25850   -3.61570   -0.83640    1.53000  # oc,c,c1,oc
dihedral_coeff	45 mbt  -17.25850   -3.61570   -0.83640    1.53000  # oc,c1,c,oh

# EndBondTorsion Coeffs

dihedral_coeff	 1 ebt    0.24860    0.24220   -0.09250    0.08140    0.05910    0.22190    1.53000    1.10100  # c,c,c,hc
dihedral_coeff	 2 ebt    1.15380    0.84090   -0.91380   -0.31900    0.44110   -0.71740    1.53000    1.42000  # c,c,c,oc
dihedral_coeff	 3 ebt   -0.24560    1.05170   -0.77950    0.47410    1.26350    0.55760    1.53000    1.42000  # c,c,oc,c1
dihedral_coeff	 4 ebt    0.00000    0.00000    0.00000    0.00000    0.00000    0.00000    1.53000    1.37680  # c,c,oc,cp
dihedral_coeff	 5 ebt    0.24860    0.24220   -0.09250    0.08140    0.05910    0.22190    1.53000    1.10100  # c,c1,c,hc
dihedral_coeff	 6 ebt    1.15380    0.84090   -0.91380   -0.31900    0.44110   -0.71740    1.53000    1.42000  # c,c1,c,oc
dihedral_coeff	 7 ebt   -0.31900    0.44110   -0.71740    1.15380    0.84090   -0.91380    1.53000    1.42000  # c,c1,c,oh
dihedral_coeff	 8 ebt    0.47410    1.26350    0.55760   -0.24560    1.05170   -0.77950    1.53000    1.42000  # c,c1,oc,c
dihedral_coeff	 9 ebt    0.24860    0.24220   -0.09250    0.08140    0.05910    0.22190    1.53000    1.10100  # c,c3h,c,hc
dihedral_coeff	10 ebt   -0.31900    0.44110   -0.71740    1.15380    0.84090   -0.91380    1.53000    1.42000  # c,c3h,c,o3e
dihedral_coeff	11 ebt    1.15380    0.84090   -0.91380   -0.31900    0.44110   -0.71740    1.53000    1.42000  # c,c3h,c,oc
dihedral_coeff	12 ebt   -0.24560    1.05170   -0.77950    0.47410    1.26350    0.55760    1.53000    1.42000  # c,c3h,o3e,c
dihedral_coeff	13 ebt    0.00000   -0.69180    0.00000    0.00000    0.24210    0.00000    1.50100    1.41700  # c,cp,cp,cp
dihedral_coeff	14 ebt    0.00000   -1.79700    0.00000    0.00000   -0.48790    0.00000    1.50100    1.09820  # c,cp,cp,hc
dihedral_coeff	15 ebt   -0.16200    0.15640   -1.14080   -0.60540    1.33390    0.96480    1.42000    1.10100  # c,o3e,c3h,hc
dihedral_coeff	16 ebt   -0.16200    0.15640   -1.14080   -0.60540    1.33390    0.96480    1.42000    1.10100  # c,oc,c1,hc
dihedral_coeff	17 ebt    0.00000    0.00000    0.00000    0.00000    0.00000    0.00000    1.42000    1.41700  # c,oc,cp,cp
dihedral_coeff	18 ebt    0.47410    1.26350    0.55760   -0.24560    1.05170   -0.77950    1.53000    1.42000  # c1,c,oc,c1
dihedral_coeff	19 ebt    0.00000    0.00000    0.00000    0.00000    0.00000    0.00000    1.53000    1.37680  # c1,c,oc,cp
dihedral_coeff	20 ebt    0.00000    0.00000    0.00000    0.00000    0.00000    0.00000    1.53000    0.96000  # c1,c,oh,h
dihedral_coeff	21 ebt   -0.60540    1.33390    0.96480   -0.16200    0.15640   -1.14080    1.42000    1.10100  # c1,oc,c,hc
dihedral_coeff	22 ebt    0.00000    0.00000    0.00000    0.00000    0.00000    0.00000    1.53000    1.37680  # c3h,c,oc,cp
dihedral_coeff	23 ebt   -0.60540    1.33390    0.96480   -0.16200    0.15640   -1.14080    1.42000    1.10100  # c3h,o3e,c,hc
dihedral_coeff	24 ebt    0.00000    0.00000    0.00000    0.00000    0.00000    0.00000    1.50100    1.41700  # cp,c,cp,cp
dihedral_coeff	25 ebt   -0.58350    1.12200    0.39780    1.39970    0.77560    0.00000    1.41700    1.10100  # cp,cp,c,hc
dihedral_coeff	26 ebt   -0.11850    6.32040    0.00000   -0.11850    6.32040    0.00000    1.41700    1.41700  # cp,cp,cp,cp
dihedral_coeff	27 ebt    0.00000   -6.89580    0.00000    0.00000   -0.46690    0.00000    1.41700    1.09820  # cp,cp,cp,hc
dihedral_coeff	28 ebt    0.00000    0.26550    0.00000    0.00000    4.89050    0.00000    1.41700    1.37680  # cp,cp,cp,oc
dihedral_coeff	29 ebt    0.00000    0.00000    0.00000    0.00000    0.00000    0.00000    1.37680    1.10100  # cp,oc,c,hc
dihedral_coeff	30 ebt    0.00000    0.00000    0.00000    0.00000    0.00000    0.00000    0.96000    1.10100  # h,oh,c,hc
dihedral_coeff	31 ebt    0.21300    0.31200    0.07770    0.21300    0.31200    0.07770    1.10100    1.10100  # hc,c,c,hc
dihedral_coeff	32 ebt    0.59030    0.66690    0.85840    0.96810    0.95510    0.04360    1.10100    1.42000  # hc,c,c,oc
dihedral_coeff	33 ebt    0.21300    0.31200    0.07770    0.21300    0.31200    0.07770    1.10100    1.10100  # hc,c,c1,hc
dihedral_coeff	34 ebt    0.59030    0.66690    0.85840    0.96810    0.95510    0.04360    1.10100    1.42000  # hc,c,c1,oc
dihedral_coeff	35 ebt    0.21300    0.31200    0.07770    0.21300    0.31200    0.07770    1.10100    1.10100  # hc,c,c3h,hc
dihedral_coeff	36 ebt    0.96810    0.95510    0.04360    0.59030    0.66690    0.85840    1.10100    1.42000  # hc,c,c3h,o3e
dihedral_coeff	37 ebt    0.59030    0.66690    0.85840    0.96810    0.95510    0.04360    1.10100    1.42000  # hc,c1,c,oc
dihedral_coeff	38 ebt    0.96810    0.95510    0.04360    0.59030    0.66690    0.85840    1.10100    1.42000  # hc,c1,c,oh
dihedral_coeff	39 ebt    0.96810    0.95510    0.04360    0.59030    0.66690    0.85840    1.10100    1.42000  # hc,c3h,c,o3e
dihedral_coeff	40 ebt    0.59030    0.66690    0.85840    0.96810    0.95510    0.04360    1.10100    1.42000  # hc,c3h,c,oc
dihedral_coeff	41 ebt    0.00000   -0.68900    0.00000    0.00000   -0.68900    0.00000    1.09820    1.09820  # hc,cp,cp,hc
dihedral_coeff	42 ebt    0.00000    4.26410    0.00000    0.00000   -1.58670    0.00000    1.09820    1.37680  # hc,cp,cp,oc
dihedral_coeff	43 ebt    1.01650    0.75530   -0.46090    1.01650    0.75530   -0.46090    1.42000    1.42000  # o3e,c3h,c,oc
dihedral_coeff	44 ebt    1.01650    0.75530   -0.46090    1.01650    0.75530   -0.46090    1.42000    1.42000  # oc,c,c1,oc
dihedral_coeff	45 ebt    1.01650    0.75530   -0.46090    1.01650    0.75530   -0.46090    1.42000    1.42000  # oc,c1,c,oh

# AngleTorsion Coeffs

dihedral_coeff	 1 at   -0.24540    0.00000   -0.11360    0.31130    0.45160   -0.19880  112.67000  110.77000  # c,c,c,hc
dihedral_coeff	 2 at    0.96720   -0.75660   -1.23310    0.56230   -0.30410   -0.40150  112.67000  111.27000  # c,c,c,oc
dihedral_coeff	 3 at   -2.74660    1.48770   -0.89550    0.56760    0.94500    0.07030  111.27000  104.50000  # c,c,oc,c1
dihedral_coeff	 4 at    0.00000    0.00000    0.00000    0.00000    0.00000    0.00000  111.27000  102.96950  # c,c,oc,cp
dihedral_coeff	 5 at   -0.24540    0.00000   -0.11360    0.31130    0.45160   -0.19880  112.67000  110.77000  # c,c1,c,hc
dihedral_coeff	 6 at    0.96720   -0.75660   -1.23310    0.56230   -0.30410   -0.40150  112.67000  111.27000  # c,c1,c,oc
dihedral_coeff	 7 at    0.56230   -0.30410   -0.40150    0.96720   -0.75660   -1.23310  112.67000  111.27000  # c,c1,c,oh
dihedral_coeff	 8 at    0.56760    0.94500    0.07030   -2.74660    1.48770   -0.89550  111.27000  104.50000  # c,c1,oc,c
dihedral_coeff	 9 at   -0.24540    0.00000   -0.11360    0.31130    0.45160   -0.19880  112.67000  110.77000  # c,c3h,c,hc
dihedral_coeff	10 at    0.56230   -0.30410   -0.40150    0.96720   -0.75660   -1.23310  112.67000  111.27000  # c,c3h,c,o3e
dihedral_coeff	11 at    0.96720   -0.75660   -1.23310    0.56230   -0.30410   -0.40150  112.67000  111.27000  # c,c3h,c,oc
dihedral_coeff	12 at   -2.74660    1.48770   -0.89550    0.56760    0.94500    0.07030  111.27000  104.50000  # c,c3h,o3e,c
dihedral_coeff	13 at    0.00000    3.89870    0.00000    0.00000   -4.46830    0.00000  120.05000  118.90000  # c,cp,cp,cp
dihedral_coeff	14 at    0.00000   -0.12420    0.00000    0.00000    3.46010    0.00000  120.05000  117.94000  # c,cp,cp,hc
dihedral_coeff	15 at   -0.77770    0.43400   -0.66530   -1.82340    1.63930    0.51440  104.50000  108.72800  # c,o3e,c3h,hc
dihedral_coeff	16 at   -0.77770    0.43400   -0.66530   -1.82340    1.63930    0.51440  104.50000  108.72800  # c,oc,c1,hc
dihedral_coeff	17 at    0.00000    0.00000    0.00000    0.00000    0.00000    0.00000  102.96950  123.42000  # c,oc,cp,cp
dihedral_coeff	18 at    0.56760    0.94500    0.07030   -2.74660    1.48770   -0.89550  111.27000  104.50000  # c1,c,oc,c1
dihedral_coeff	19 at    0.00000    0.00000    0.00000    0.00000    0.00000    0.00000  111.27000  102.96950  # c1,c,oc,cp
dihedral_coeff	20 at    0.00000    0.00000    0.00000    0.00000    0.00000    0.00000  111.27000  109.00000  # c1,c,oh,h
dihedral_coeff	21 at   -1.82340    1.63930    0.51440   -0.77770    0.43400   -0.66530  104.50000  108.72800  # c1,oc,c,hc
dihedral_coeff	22 at    0.00000    0.00000    0.00000    0.00000    0.00000    0.00000  111.27000  102.96950  # c3h,c,oc,cp
dihedral_coeff	23 at   -1.82340    1.63930    0.51440   -0.77770    0.43400   -0.66530  104.50000  108.72800  # c3h,o3e,c,hc
dihedral_coeff	24 at    0.00000    0.00000    0.00000    0.00000    0.00000    0.00000  111.00000  120.05000  # cp,c,cp,cp
dihedral_coeff	25 at    0.22510    0.65480    0.12370    4.62660    0.16320    0.04610  120.05000  111.00000  # cp,cp,c,hc
dihedral_coeff	26 at    1.97670    1.02390    0.00000    1.97670    1.02390    0.00000  118.90000  118.90000  # cp,cp,cp,cp
dihedral_coeff	27 at    0.00000    2.50140    0.00000    0.00000    2.71470    0.00000  118.90000  117.94000  # cp,cp,cp,hc
dihedral_coeff	28 at    0.00000   10.01550    0.00000    0.00000    1.74040    0.00000  118.90000  123.42000  # cp,cp,cp,oc
dihedral_coeff	29 at    0.00000    0.00000    0.00000    0.00000    0.00000    0.00000  102.96950  108.72800  # cp,oc,c,hc
dihedral_coeff	30 at    0.00000    0.00000    0.00000    0.00000    0.00000    0.00000  109.00000  108.72800  # h,oh,c,hc
dihedral_coeff	31 at   -0.80850    0.55690   -0.24660   -0.80850    0.55690   -0.24660  110.77000  110.77000  # hc,c,c,hc
dihedral_coeff	32 at   -0.18920    0.49180    0.72730    2.36680    2.49200   -1.01220  110.77000  111.27000  # hc,c,c,oc
dihedral_coeff	33 at   -0.80850    0.55690   -0.24660   -0.80850    0.55690   -0.24660  110.77000  110.77000  # hc,c,c1,hc
dihedral_coeff	34 at   -0.18920    0.49180    0.72730    2.36680    2.49200   -1.01220  110.77000  111.27000  # hc,c,c1,oc
dihedral_coeff	35 at   -0.80850    0.55690   -0.24660   -0.80850    0.55690   -0.24660  110.77000  110.77000  # hc,c,c3h,hc
dihedral_coeff	36 at    2.36680    2.49200   -1.01220   -0.18920    0.49180    0.72730  110.77000  111.27000  # hc,c,c3h,o3e
dihedral_coeff	37 at   -0.18920    0.49180    0.72730    2.36680    2.49200   -1.01220  110.77000  111.27000  # hc,c1,c,oc
dihedral_coeff	38 at    2.36680    2.49200   -1.01220   -0.18920    0.49180    0.72730  110.77000  111.27000  # hc,c1,c,oh
dihedral_coeff	39 at    2.36680    2.49200   -1.01220   -0.18920    0.49180    0.72730  110.77000  111.27000  # hc,c3h,c,o3e
dihedral_coeff	40 at   -0.18920    0.49180    0.72730    2.36680    2.49200   -1.01220  110.77000  111.27000  # hc,c3h,c,oc
dihedral_coeff	41 at    0.00000    2.45010    0.00000    0.00000    2.45010    0.00000  117.94000  117.94000  # hc,cp,cp,hc
dihedral_coeff	42 at    0.00000    2.57060    0.00000    0.00000    1.87290    0.00000  117.94000  123.42000  # hc,cp,cp,oc
dihedral_coeff	43 at    0.55110    0.97370   -0.66730    0.55110    0.97370   -0.66730  111.27000  111.27000  # o3e,c3h,c,oc
dihedral_coeff	44 at    0.55110    0.97370   -0.66730    0.55110    0.97370   -0.66730  111.27000  111.27000  # oc,c,c1,oc
dihedral_coeff	45 at    0.55110    0.97370   -0.66730    0.55110    0.97370   -0.66730  111.27000  111.27000  # oc,c1,c,oh

# AngleAngleTorsion Coeffs

dihedral_coeff	 1 aat  -16.16400  112.67000  110.77000  # c,c,c,hc
dihedral_coeff	 2 aat  -29.04200  112.67000  111.27000  # c,c,c,oc
dihedral_coeff	 3 aat  -19.00590  111.27000  104.50000  # c,c,oc,c1
dihedral_coeff	 4 aat    0.00000  111.27000  102.96950  # c,c,oc,cp
dihedral_coeff	 5 aat  -16.16400  112.67000  110.77000  # c,c1,c,hc
dihedral_coeff	 6 aat  -29.04200  112.67000  111.27000  # c,c1,c,oc
dihedral_coeff	 7 aat  -29.04200  112.67000  111.27000  # c,c1,c,oh
dihedral_coeff	 8 aat  -19.00590  111.27000  104.50000  # c,c1,oc,c
dihedral_coeff	 9 aat  -16.16400  112.67000  110.77000  # c,c3h,c,hc
dihedral_coeff	10 aat  -29.04200  112.67000  111.27000  # c,c3h,c,o3e
dihedral_coeff	11 aat  -29.04200  112.67000  111.27000  # c,c3h,c,oc
dihedral_coeff	12 aat  -19.00590  111.27000  104.50000  # c,c3h,o3e,c
dihedral_coeff	13 aat  -14.40970  120.05000  118.90000  # c,cp,cp,cp
dihedral_coeff	14 aat    4.44440  120.05000  117.94000  # c,cp,cp,hc
dihedral_coeff	15 aat  -16.44380  104.50000  108.72800  # c,o3e,c3h,hc
dihedral_coeff	16 aat  -16.44380  104.50000  108.72800  # c,oc,c1,hc
dihedral_coeff	17 aat    0.00000  102.96950  123.42000  # c,oc,cp,cp
dihedral_coeff	18 aat  -19.00590  111.27000  104.50000  # c1,c,oc,c1
dihedral_coeff	19 aat    0.00000  111.27000  102.96950  # c1,c,oc,cp
dihedral_coeff	20 aat    0.00000  111.27000  109.00000  # c1,c,oh,h
dihedral_coeff	21 aat  -16.44380  104.50000  108.72800  # c1,oc,c,hc
dihedral_coeff	22 aat    0.00000  111.27000  102.96950  # c3h,c,oc,cp
dihedral_coeff	23 aat  -16.44380  104.50000  108.72800  # c3h,o3e,c,hc
dihedral_coeff	24 aat    0.00000  111.00000  120.05000  # cp,c,cp,cp
dihedral_coeff	25 aat   -5.88880  120.05000  111.00000  # cp,cp,c,hc
dihedral_coeff	26 aat    0.00000  118.90000  118.90000  # cp,cp,cp,cp
dihedral_coeff	27 aat   -4.81410  118.90000  117.94000  # cp,cp,cp,hc
dihedral_coeff	28 aat  -21.02470  118.90000  123.42000  # cp,cp,cp,oc
dihedral_coeff	29 aat    0.00000  102.96950  108.72800  # cp,oc,c,hc
dihedral_coeff	30 aat    0.00000  109.00000  108.72800  # h,oh,c,hc
dihedral_coeff	31 aat  -12.56400  110.77000  110.77000  # hc,c,c,hc
dihedral_coeff	32 aat  -20.20060  110.77000  111.27000  # hc,c,c,oc
dihedral_coeff	33 aat  -12.56400  110.77000  110.77000  # hc,c,c1,hc
dihedral_coeff	34 aat  -20.20060  110.77000  111.27000  # hc,c,c1,oc
dihedral_coeff	35 aat  -12.56400  110.77000  110.77000  # hc,c,c3h,hc
dihedral_coeff	36 aat  -20.20060  110.77000  111.27000  # hc,c,c3h,o3e
dihedral_coeff	37 aat  -20.20060  110.77000  111.27000  # hc,c1,c,oc
dihedral_coeff	38 aat  -20.20060  110.77000  111.27000  # hc,c1,c,oh
dihedral_coeff	39 aat  -20.20060  110.77000  111.27000  # hc,c3h,c,o3e
dihedral_coeff	40 aat  -20.20060  110.77000  111.27000  # hc,c3h,c,oc
dihedral_coeff	41 aat    0.35980  117.94000  117.94000  # hc,cp,cp,hc
dihedral_coeff	42 aat    4.22960  117.94000  123.42000  # hc,cp,cp,oc
dihedral_coeff	43 aat  -14.04840  111.27000  111.27000  # o3e,c3h,c,oc
dihedral_coeff	44 aat  -14.04840  111.27000  111.27000  # oc,c,c1,oc
dihedral_coeff	45 aat  -14.04840  111.27000  111.27000  # oc,c1,c,oh

# BondBond13 Coeffs

dihedral_coeff	 1 bb13    0.00000    1.53000    1.10100  # c,c,c,hc
dihedral_coeff	 2 bb13    0.00000    1.53000    1.42000  # c,c,c,oc
dihedral_coeff	 3 bb13    0.00000    1.53000    1.42000  # c,c,oc,c1
dihedral_coeff	 4 bb13    0.00000    1.53000    1.37680  # c,c,oc,cp
dihedral_coeff	 5 bb13    0.00000    1.53000    1.10100  # c,c1,c,hc
dihedral_coeff	 6 bb13    0.00000    1.53000    1.42000  # c,c1,c,oc
dihedral_coeff	 7 bb13    0.00000    1.53000    1.42000  # c,c1,c,oh
dihedral_coeff	 8 bb13    0.00000    1.53000    1.42000  # c,c1,oc,c
dihedral_coeff	 9 bb13    0.00000    1.53000    1.10100  # c,c3h,c,hc
dihedral_coeff	10 bb13    0.00000    1.53000    1.42000  # c,c3h,c,o3e
dihedral_coeff	11 bb13    0.00000    1.53000    1.42000  # c,c3h,c,oc
dihedral_coeff	12 bb13    0.00000    1.53000    1.42000  # c,c3h,o3e,c
dihedral_coeff	13 bb13    2.50850    1.50100    1.41700  # c,cp,cp,cp
dihedral_coeff	14 bb13    0.87430    1.50100    1.09820  # c,cp,cp,hc
dihedral_coeff	15 bb13    0.00000    1.42000    1.10100  # c,o3e,c3h,hc
dihedral_coeff	16 bb13    0.00000    1.42000    1.10100  # c,oc,c1,hc
dihedral_coeff	17 bb13    0.00000    1.42000    1.41700  # c,oc,cp,cp
dihedral_coeff	18 bb13    0.00000    1.53000    1.42000  # c1,c,oc,c1
dihedral_coeff	19 bb13    0.00000    1.53000    1.37680  # c1,c,oc,cp
dihedral_coeff	20 bb13    0.00000    1.53000    0.96000  # c1,c,oh,h
dihedral_coeff	21 bb13    0.00000    1.42000    1.10100  # c1,oc,c,hc
dihedral_coeff	22 bb13    0.00000    1.53000    1.37680  # c3h,c,oc,cp
dihedral_coeff	23 bb13    0.00000    1.42000    1.10100  # c3h,o3e,c,hc
dihedral_coeff	24 bb13    0.00000    1.50100    1.41700  # cp,c,cp,cp
dihedral_coeff	25 bb13   -3.48260    1.41700    1.10100  # cp,cp,c,hc
dihedral_coeff	26 bb13   53.00000    1.41700    1.41700  # cp,cp,cp,cp
dihedral_coeff	27 bb13   -6.27410    1.41700    1.09820  # cp,cp,cp,hc
dihedral_coeff	28 bb13   -2.24360    1.41700    1.37680  # cp,cp,cp,oc
dihedral_coeff	29 bb13    0.00000    1.37680    1.10100  # cp,oc,c,hc
dihedral_coeff	30 bb13    0.00000    0.96000    1.10100  # h,oh,c,hc
dihedral_coeff	31 bb13    0.00000    1.10100    1.10100  # hc,c,c,hc
dihedral_coeff	32 bb13    0.00000    1.10100    1.42000  # hc,c,c,oc
dihedral_coeff	33 bb13    0.00000    1.10100    1.10100  # hc,c,c1,hc
dihedral_coeff	34 bb13    0.00000    1.10100    1.42000  # hc,c,c1,oc
dihedral_coeff	35 bb13    0.00000    1.10100    1.10100  # hc,c,c3h,hc
dihedral_coeff	36 bb13    0.00000    1.10100    1.42000  # hc,c,c3h,o3e
dihedral_coeff	37 bb13    0.00000    1.10100    1.42000  # hc,c1,c,oc
dihedral_coeff	38 bb13    0.00000    1.10100    1.42000  # hc,c1,c,oh
dihedral_coeff	39 bb13    0.00000    1.10100    1.42000  # hc,c3h,c,o3e
dihedral_coeff	40 bb13    0.00000    1.10100    1.42000  # hc,c3h,c,oc
dihedral_coeff	41 bb13   -1.70770    1.09820    1.09820  # hc,cp,cp,hc
dihedral_coeff	42 bb13    2.05170    1.09820    1.37680  # hc,cp,cp,oc
dihedral_coeff	43 bb13    0.00000    1.42000    1.42000  # o3e,c3h,c,oc
dihedral_coeff	44 bb13    0.00000    1.42000    1.42000  # oc,c,c1,oc
dihedral_coeff	45 bb13    0.00000    1.42000    1.42000  # oc,c1,c,oh

# Improper Coeffs

improper_coeff	 1    0.00000    0.00000  # c,c,c,hc
improper_coeff	 2    0.00000    0.00000  # c,c,hc,hc
improper_coeff	 3    0.00000    0.00000  # c,c,hc,oc
improper_coeff	 4    0.00000    0.00000  # c,c,oc,hc
improper_coeff	 5    0.00000    0.00000  # c,c1,hc,hc
improper_coeff	 6    0.00000    0.00000  # c,c1,hc,oc
improper_coeff	 7    0.00000    0.00000  # c,c1,hc,oh
improper_coeff	 8    0.00000    0.00000  # c,c1,oc,hc
improper_coeff	 9    0.00000    0.00000  # c,c3h,hc,hc
improper_coeff	10    0.00000    0.00000  # c,c3h,hc,o3e
improper_coeff	11    0.00000    0.00000  # c,c3h,hc,oc
improper_coeff	12    0.00000    0.00000  # c,cp,cp,hc
improper_coeff	13    0.00000    0.00000  # c,cp,hc,hc
improper_coeff	14    0.00000    0.00000  # c,hc,hc,o3e
improper_coeff	15    0.00000    0.00000  # c,hc,hc,oc
improper_coeff	16    0.00000    0.00000  # c,hc,hc,oh
improper_coeff	17    0.00000    0.00000  # c1,c,c,hc
improper_coeff	18    0.00000    0.00000  # c1,c,c,oc
improper_coeff	19    0.00000    0.00000  # c1,c,oc,hc
improper_coeff	20    0.00000    0.00000  # c3h,c,c,hc
improper_coeff	21    0.00000    0.00000  # c3h,c,c,o3e
improper_coeff	22    0.00000    0.00000  # c3h,c,hc,o3e
improper_coeff	23    0.00000    0.00000  # c3h,c,o3e,hc
improper_coeff	24    7.81530    0.00000  # cp,c,cp,cp
improper_coeff	25    4.89120    0.00000  # cp,cp,cp,hc
improper_coeff	26   13.04210    0.00000  # cp,cp,cp,oc

# AngleAngle Coeffs

improper_coeff	 1 aa   -1.31990   -1.31990    0.11840  112.67000  110.77000  110.77000  # c,c,c,hc
improper_coeff	 2 aa    0.27380   -0.48250    0.27380  110.77000  110.77000  107.66000  # c,c,hc,hc
improper_coeff	 3 aa    0.00000    0.00000    0.16890  110.77000  111.27000  108.72800  # c,c,hc,oc
improper_coeff	 4 aa    0.16890    0.00000    0.00000  111.27000  110.77000  108.72800  # c,c,oc,hc
improper_coeff	 5 aa    0.00000   -0.48250    0.00000  110.77000  110.77000  107.66000  # c,c1,hc,hc
improper_coeff	 6 aa    0.00000    0.00000    0.00000  110.77000  111.27000  108.72800  # c,c1,hc,oc
improper_coeff	 7 aa    0.00000    2.59260    0.00000  110.77000  111.27000  108.72800  # c,c1,hc,oh
improper_coeff	 8 aa    0.00000    0.00000    0.00000  111.27000  110.77000  108.72800  # c,c1,oc,hc
improper_coeff	 9 aa    0.00000   -0.48250    0.00000  110.77000  110.77000  107.66000  # c,c3h,hc,hc
improper_coeff	10 aa    3.91770    2.59260    0.00000  110.77000  111.27000  108.72800  # c,c3h,hc,o3e
improper_coeff	11 aa    0.00000    0.00000    0.00000  110.77000  111.27000  108.72800  # c,c3h,hc,oc
improper_coeff	12 aa    0.00000    0.00000    0.00000  111.00000  111.00000  111.00000  # c,cp,cp,hc
improper_coeff	13 aa    2.37940    3.01180    2.37940  111.00000  111.00000  107.66000  # c,cp,hc,hc
improper_coeff	14 aa    2.42590    2.42590    2.12830  107.66000  108.72800  108.72800  # c,hc,hc,o3e
improper_coeff	15 aa    0.00000    0.00000    2.12830  107.66000  108.72800  108.72800  # c,hc,hc,oc
improper_coeff	16 aa    2.42590    2.42590    2.12830  107.66000  108.72800  108.72800  # c,hc,hc,oh
improper_coeff	17 aa   -1.31990   -1.31990    0.11840  112.67000  110.77000  110.77000  # c1,c,c,hc
improper_coeff	18 aa    0.00000    0.00000   -3.57440  112.67000  111.27000  111.27000  # c1,c,c,oc
improper_coeff	19 aa    0.16890    0.00000    0.00000  111.27000  110.77000  108.72800  # c1,c,oc,hc
improper_coeff	20 aa   -1.31990   -1.31990    0.11840  112.67000  110.77000  110.77000  # c3h,c,c,hc
improper_coeff	21 aa   -0.83300   -0.83300   -3.57440  112.67000  111.27000  111.27000  # c3h,c,c,o3e
improper_coeff	22 aa    3.91770    2.59260    0.16890  110.77000  111.27000  108.72800  # c3h,c,hc,o3e
improper_coeff	23 aa    0.16890    2.59260    3.91770  111.27000  110.77000  108.72800  # c3h,c,o3e,hc
improper_coeff	24 aa    0.00000    0.00000    0.00000  120.05000  120.05000  118.90000  # cp,c,cp,cp
improper_coeff	25 aa    0.00000    0.00000    0.00000  118.90000  117.94000  117.94000  # cp,cp,cp,hc
improper_coeff	26 aa    0.00000    0.00000    0.00000  118.90000  123.42000  123.42000  # cp,cp,cp,oc

# ------------------------------- OPT Section -------------------------------
minimize 1.0e-5 1.0e-7 100000 400000
PPPM initialization ...
  G vector (1/distance) = 0.11440119
  grid = 4 4 4
  stencil order = 5
  estimated absolute RMS force accuracy = 0.28915976
  estimated relative force accuracy = 0.00087079602
  3d grid and FFT values/proc = 294 4
Generated 36 of 36 mixed pair_coeff terms from sixthpower/sixthpower mixing rule
  PPPM/cg optimization cutoff: 1e-05
  Total charged atoms: 95.4%
  Min/max charged atoms/proc: 92.5% 96.9%
Step          Temp          E_pair         E_mol          TotEng         Press
0   582.90106     -1097.5541      15683.716      23272.011      585.37865
Loop time of 1.00104 on 24 procs for 103 steps with 5000 atoms

Minimization stats:
  Stopping criterion = linesearch alpha is zero
  Energy initial, next-to-last, final =
  Force two-norm initial, final = 3630.27 55.177784
  Force max component initial, final = 180.75482 2.4957343
  Final line search alpha, max atom move = 2.4896507e-12 6.2135066e-12
  Iterations, force evaluations = 103 266

# ------------------------------- Run Section -------------------------------
#

timestep 0.25
neighbor        2.0 bin
neigh_modify    delay 0 every 1 check yes

thermo_style custom step temp pe evdwl ecoul ebond eangle edihed eimp density vol
thermo 20000

variable        Rho equal density
variable        Temp equal temp
variable        Volume equal vol
fix             fDENS all ave/time 100 100 300000 v_Temp v_Rho v_Volume file temp_vs_density.txt

label           loop
variable        a loop 26
variable        b equal 600-20*($a-1)
variable        b equal 600-20*(1-1)
fix             fMOM all momentum 100 linear 1 1 1 angular
fix             fNPT all npt temp $b $b $(100.0*dt) iso 1 1 $(100.0*dt)
fix             fNPT all npt temp 600 $b $(100.0*dt) iso 1 1 $(100.0*dt)
fix             fNPT all npt temp 600 600 $(100.0*dt) iso 1 1 $(100.0*dt)
fix             fNPT all npt temp 600 600 25 iso 1 1 $(100.0*dt)
fix             fNPT all npt temp 600 600 25 iso 1 1 25
run             1200000
PPPM initialization ...
  G vector (1/distance) = 0.11440119
  grid = 4 4 4
  stencil order = 5
  estimated absolute RMS force accuracy = 0.28915976
  estimated relative force accuracy = 0.00087079602
  3d grid and FFT values/proc = 294 4
Generated 36 of 36 mixed pair_coeff terms from sixthpower/sixthpower mixing rule
Step          Temp          PotEng         E_vdwl         E_coul         E_bond        E_angle        E_dihed        E_impro        Density         Volume
103   582.90106      5735.7696     -1063.0375      556.00868      691.13066      9573.0532     -2664.4042     -32.099768      1.0193785      59045.154
Averages over the last 31 of 62 rows, steps 620000 to 1200103:
Temp PotEng E_vdwl E_coul E_bond E_angle E_dihed E_impro Density Volume
600.244 14598 -425.904 572.711 3955.08 12831.4 -1215.32 204.43 1.02386 58790.4
Loop time of 3918.85 on 24 procs for 1200000 steps with 5000 atoms

unfix           fNPT
unfix           fMOM
next            a
jump            SELF loop
variable        a loop 26
variable        b equal 600-20*($a-1)
variable        b equal 600-20*(2-1)
fix             fMOM all momentum 100 linear 1 1 1 angular
fix             fNPT all npt temp $b $b $(100.0*dt) iso 1 1 $(100.0*dt)
fix             fNPT all npt temp 580 $b $(100.0*dt) iso 1 1 $(100.0*dt)
fix             fNPT all npt temp 580 580 $(100.0*dt) iso 1 1 $(100.0*dt)
fix             fNPT all npt temp 580 580 25 iso 1 1 $(100.0*dt)
fix             fNPT all npt temp 580 580 25 iso 1 1 25
run             1200000
PPPM initialization ...
  G vector (1/distance) = 0.1147302
  grid = 4 4 4
  stencil order = 5
  estimated absolute RMS force accuracy = 0.2886847
  estimated relative force accuracy = 0.0008693654
  3d grid and FFT values/proc = 294 4
Generated 36 of 36 mixed pair_coeff terms from sixthpower/sixthpower mixing rule
Step          Temp          PotEng         E_vdwl         E_coul         E_bond        E_angle        E_dihed        E_impro        Density         Volume
1200103   599.601        14354.755     -446.77199      593.43096      3771.1552      12841.84      -1271.1386      195.19502      1.0314671      58353.152
Averages over the last 31 of 62 rows, steps 1820000 to 2400103:
Temp PotEng E_vdwl E_coul E_bond E_angle E_dihed E_impro Density Volume
578.075 14213.4 -503.701 572.91 3843.1 12688.8 -1253.7 194.028 1.03331 58254.4
Loop time of 3942.94 on 24 procs for 1200000 steps with 5000 atoms

unfix           fNPT
unfix           fMOM
next            a
jump            SELF loop
variable        a loop 26
variable        b equal 600-20*($a-1)
variable        b equal 600-20*(3-1)
fix             fMOM all momentum 100 linear 1 1 1 angular
fix             fNPT all npt temp $b $b $(100.0*dt) iso 1 1 $(100.0*dt)
fix             fNPT all npt temp 560 $b $(100.0*dt) iso 1 1 $(100.0*dt)
fix             fNPT all npt temp 560 560 $(100.0*dt) iso 1 1 $(100.0*dt)
fix             fNPT all npt temp 560 560 25 iso 1 1 $(100.0*dt)
fix             fNPT all npt temp 560 560 25 iso 1 1 25
run             1200000
PPPM initialization ...
  G vector (1/distance) = 0.11484845
  grid = 4 4 4
  stencil order = 5
  estimated absolute RMS force accuracy = 0.28851199
  estimated relative force accuracy = 0.00086884529
  3d grid and FFT values/proc = 294 4
Generated 36 of 36 mixed pair_coeff terms from sixthpower/sixthpower mixing rule
Step          Temp          PotEng         E_vdwl         E_coul         E_bond        E_angle        E_dihed        E_impro        Density         Volume
2400103   581.7987       14050.004     -511.73075      573.95594      3729.8198      12736.635     -1341.0318      191.64449      1.0358422      58106.686
Averages over the last 31 of 62 rows, steps 3020000 to 3600103:
Temp PotEng E_vdwl E_coul E_bond E_angle E_dihed E_impro Density Volume
560.074 13839.5 -537.981 569.151 3737.29 12548.5 -1335.07 186.927 1.04509 57596.6
Loop time of 3922.42 on 24 procs for 1200000 steps with 5000 atoms

unfix           fNPT
unfix           fMOM
next            a
jump            SELF loop
variable        a loop 26
variable        b equal 600-20*($a-1)
variable        b equal 600-20*(4-1)
fix             fMOM all momentum 100 linear 1 1 1 angular
fix             fNPT all npt temp $b $b $(100.0*dt) iso 1 1 $(100.0*dt)
fix             fNPT all npt temp 540 $b $(100.0*dt) iso 1 1 $(100.0*dt)
fix             fNPT all npt temp 540 540 $(100.0*dt) iso 1 1 $(100.0*dt)
fix             fNPT all npt temp 540 540 25 iso 1 1 $(100.0*dt)
fix             fNPT all npt temp 540 540 25 iso 1 1 25
run             1200000
PPPM initialization ...
  G vector (1/distance) = 0.11500454
  grid = 4 4 4
  stencil order = 5
  estimated absolute RMS force accuracy = 0.28828243
  estimated relative force accuracy = 0.00086815397
  3d grid and FFT values/proc = 294 4
Generated 36 of 36 mixed pair_coeff terms from sixthpower/sixthpower mixing rule
Step          Temp          PotEng         E_vdwl         E_coul         E_bond        E_angle        E_dihed        E_impro        Density         Volume
3600103   563.50962      13732.834     -515.11177      577.31176      3622.8693      12592.06      -1398.7223      184.71259      1.041642       57783.152
Averages over the last 31 of 62 rows, steps 4220000 to 4800103:
Temp PotEng E_vdwl E_coul E_bond E_angle E_dihed E_impro Density Volume
540.374 13511.8 -579.978 553.933 3617.62 12455.7 -1383.45 178.864 1.0506 57293.1
Loop time of 3942.51 on 24 procs for 1200000 steps with 5000 atoms

unfix           fNPT
unfix           fMOM
next            a
jump            SELF loop
variable        a loop 26
variable        b equal 600-20*($a-1)
variable        b equal 600-20*(5-1)
fix             fMOM all momentum 100 linear 1 1 1 angular
fix             fNPT all npt temp $b $b $(100.0*dt) iso 1 1 $(100.0*dt)
fix             fNPT all npt temp 520 $b $(100.0*dt) iso 1 1 $(100.0*dt)
fix             fNPT all npt temp 520 520 $(100.0*dt) iso 1 1 $(100.0*dt)
fix             fNPT all npt temp 520 520 25 iso 1 1 $(100.0*dt)
fix             fNPT all npt temp 520 520 25 iso 1 1 25
run             1200000
PPPM initialization ...
  G vector (1/distance) = 0.1151472
  grid = 4 4 4
  stencil order = 5
  estimated absolute RMS force accuracy = 0.28807104
  estimated relative force accuracy = 0.00086751738
  3d grid and FFT values/proc = 294 4
Generated 36 of 36 mixed pair_coeff terms from sixthpower/sixthpower mixing rule
Step          Temp          PotEng         E_vdwl         E_coul         E_bond        E_angle        E_dihed        E_impro        Density         Volume
4800103   543.69424      13599.464     -557.88468      545.54669      3574.5464      12506.08      -1326.2885      190.47837      1.0469676      57489.229
Averages over the last 31 of 62 rows, steps 5420000 to 6000103:
Temp PotEng E_vdwl E_coul E_bond E_angle E_dihed E_impro Density Volume
519.112 13158.7 -633.898 561.112 3503.28 12337.7 -1443.22 166.787 1.05769 56910.4
Loop time of 3942.6 on 24 procs for 1200000 steps with 5000 atoms

unfix           fNPT
unfix           fMOM
next            a
jump            SELF loop
variable        a loop 26
variable        b equal 600-20*($a-1)
variable        b equal 600-20*(6-1)
fix             fMOM all momentum 100 linear 1 1 1 angular
fix             fNPT all npt temp $b $b $(100.0*dt) iso 1 1 $(100.0*dt)
fix             fNPT all npt temp 500 $b $(100.0*dt) iso 1 1 $(100.0*dt)
fix             fNPT all npt temp 500 500 $(100.0*dt) iso 1 1 $(100.0*dt)
fix             fNPT all npt temp 500 500 25 iso 1 1 $(100.0*dt)
fix             fNPT all npt temp 500 500 25 iso 1 1 25
run             1200000
PPPM initialization ...
  G vector (1/distance) = 0.11546314
  grid = 4 4 4
  stencil order = 5
  estimated absolute RMS force accuracy = 0.28759757
  estimated relative force accuracy = 0.00086609153
  3d grid and FFT values/proc = 294 4
Generated 36 of 36 mixed pair_coeff terms from sixthpower/sixthpower mixing rule
Step          Temp          PotEng         E_vdwl         E_coul         E_bond        E_angle        E_dihed        E_impro        Density         Volume
6000103   522.1597       13122.705     -570.78142      559.02926      3414.4791      12358.766     -1469.3102      167.13252      1.0588462      56844.29
Averages over the last 31 of 62 rows, steps 6620000 to 7200103:
Temp PotEng E_vdwl E_coul E_bond E_angle E_dihed E_impro Density Volume
499.037 12824 -699.749 558.319 3395.59 12253.1 -1508.16 161.778 1.07169 56164.9
Loop time of 4021.76 on 24 procs for 1200000 steps with 5000 atoms

unfix           fNPT
unfix           fMOM
next            a
jump            SELF loop
variable        a loop 26
variable        b equal 600-20*($a-1)
variable        b equal 600-20*(7-1)
fix             fMOM all momentum 100 linear 1 1 1 angular
fix             fNPT all npt temp $b $b $(100.0*dt) iso 1 1 $(100.0*dt)
fix             fNPT all npt temp 480 $b $(100.0*dt) iso 1 1 $(100.0*dt)
fix             fNPT all npt temp 480 480 $(100.0*dt) iso 1 1 $(100.0*dt)
fix             fNPT all npt temp 480 480 25 iso 1 1 $(100.0*dt)
fix             fNPT all npt temp 480 480 25 iso 1 1 25
run             1200000
PPPM initialization ...
  G vector (1/distance) = 0.11585983
  grid = 4 4 4
  stencil order = 5
  estimated absolute RMS force accuracy = 0.28699276
  estimated relative force accuracy = 0.00086427017
  3d grid and FFT values/proc = 294 4
Generated 36 of 36 mixed pair_coeff terms from sixthpower/sixthpower mixing rule
Step          Temp          PotEng         E_vdwl         E_coul         E_bond        E_angle        E_dihed        E_impro        Density         Volume
7200103   504.19222      12742.881     -725.16594      586.30572      3427.9326      12177.193     -1530.4127      148.59031      1.073927       56046.043
Averages over the last 31 of 62 rows, steps 7820000 to 8400103:
Temp PotEng E_vdwl E_coul E_bond E_angle E_dihed E_impro Density Volume
481.006 12486.6 -740.229 557.416 3294.07 12108.3 -1544.16 152.992 1.07566 55957
Loop time of 4031.22 on 24 procs for 1200000 steps with 5000 atoms

unfix           fNPT
unfix           fMOM
next            a
jump            SELF loop
variable        a loop 26
variable        b equal 600-20*($a-1)
variable        b equal 600-20*(8-1)
fix             fMOM all momentum 100 linear 1 1 1 angular
fix             fNPT all npt temp $b $b $(100.0*dt) iso 1 1 $(100.0*dt)
fix             fNPT all npt temp 460 $b $(100.0*dt) iso 1 1 $(100.0*dt)
fix             fNPT all npt temp 460 460 $(100.0*dt) iso 1 1 $(100.0*dt)
fix             fNPT all npt temp 460 460 25 iso 1 1 $(100.0*dt)
fix             fNPT all npt temp 460 460 25 iso 1 1 25
run             1200000
PPPM initialization ...
  G vector (1/distance) = 0.11588718
  grid = 4 4 4
  stencil order = 5
  estimated absolute RMS force accuracy = 0.28695062
  estimated relative force accuracy = 0.00086414328
  3d grid and FFT values/proc = 294 4
Generated 36 of 36 mixed pair_coeff terms from sixthpower/sixthpower mixing rule
Step          Temp          PotEng         E_vdwl         E_coul         E_bond        E_angle        E_dihed        E_impro        Density         Volume
8400103   478.9216       12362.571     -751.32586      559.69212      3264.4522      12006.355     -1525.7751      151.81416      1.074974       55991.455
Averages over the last 31 of 62 rows, steps 9020000 to 9600103:
Temp PotEng E_vdwl E_coul E_bond E_angle E_dihed E_impro Density Volume
460.313 12182.5 -764.881 554.021 3167.72 12045.1 -1623.63 146.066 1.0815 55654.8
Loop time of 3966.24 on 24 procs for 1200000 steps with 5000 atoms

unfix           fNPT
unfix           fMOM
next            a
jump            SELF loop
variable        a loop 26
variable        b equal 600-20*($a-1)
variable        b equal 600-20*(9-1)
fix             fMOM all momentum 100 linear 1 1 1 angular
fix             fNPT all npt temp $b $b $(100.0*dt) iso 1 1 $(100.0*dt)
fix             fNPT all npt temp 440 $b $(100.0*dt) iso 1 1 $(100.0*dt)
fix             fNPT all npt temp 440 440 $(100.0*dt) iso 1 1 $(100.0*dt)
fix             fNPT all npt temp 440 440 25 iso 1 1 $(100.0*dt)
fix             fNPT all npt temp 440 440 25 iso 1 1 25
run             1200000
PPPM initialization ...
  G vector (1/distance) = 0.11610859
  grid = 4 4 4
  stencil order = 5
  estimated absolute RMS force accuracy = 0.28660766
  estimated relative force accuracy = 0.00086311046
  3d grid and FFT values/proc = 294 4
Generated 36 of 36 mixed pair_coeff terms from sixthpower/sixthpower mixing rule
Step          Temp          PotEng         E_vdwl         E_coul         E_bond        E_angle        E_dihed        E_impro        Density         Volume
9600103   468.55385      12231.695     -764.89109      580.04729      3121.122       12071.799     -1592.2514      160.37433      1.0834797      55551.901
Averages over the last 31 of 62 rows, steps 10220000 to 10800103:
Temp PotEng E_vdwl E_coul E_bond E_angle E_dihed E_impro Density Volume
438.334 11799.9 -828.978 541.742 3071.78 11909.2 -1687.51 138.306 1.09234 55103.4
Loop time of 3978.52 on 24 procs for 1200000 steps with 5000 atoms

unfix           fNPT
unfix           fMOM
next            a
jump            SELF loop
variable        a loop 26
variable        b equal 600-20*($a-1)
variable        b equal 600-20*(10-1)
fix             fMOM all momentum 100 linear 1 1 1 angular
fix             fNPT all npt temp $b $b $(100.0*dt) iso 1 1 $(100.0*dt)
fix             fNPT all npt temp 420 $b $(100.0*dt) iso 1 1 $(100.0*dt)
fix             fNPT all npt temp 420 420 $(100.0*dt) iso 1 1 $(100.0*dt)
fix             fNPT all npt temp 420 420 25 iso 1 1 $(100.0*dt)
fix             fNPT all npt temp 420 420 25 iso 1 1 25
run             1200000
PPPM initialization ...
  G vector (1/distance) = 0.11658328
  grid = 4 4 4
  stencil order = 5
  estimated absolute RMS force accuracy = 0.28586053
  estimated relative force accuracy = 0.00086086049
  3d grid and FFT values/proc = 294 4
Generated 36 of 36 mixed pair_coeff terms from sixthpower/sixthpower mixing rule
Step          Temp          PotEng         E_vdwl         E_coul         E_bond        E_angle        E_dihed        E_impro        Density         Volume
10800103   439.16897      11618.77      -834.93519      528.56228      2954.9488      11876.361     -1691.2405      136.14428      1.1019136      54622.576
Averages over the last 31 of 62 rows, steps 11420000 to 12000103:
Temp PotEng E_vdwl E_coul E_bond E_angle E_dihed E_impro Density Volume
420.558 11462.6 -865.761 551.077 2940.75 11800.3 -1744.5 130.732 1.09752 54842.5
Loop time of 3975.19 on 24 procs for 1200000 steps with 5000 atoms

unfix           fNPT
unfix           fMOM
next            a
jump            SELF loop
variable        a loop 26
variable        b equal 600-20*($a-1)
variable        b equal 600-20*(11-1)
fix             fMOM all momentum 100 linear 1 1 1 angular
fix             fNPT all npt temp $b $b $(100.0*dt) iso 1 1 $(100.0*dt)
fix             fNPT all npt temp 400 $b $(100.0*dt) iso 1 1 $(100.0*dt)
fix             fNPT all npt temp 400 400 $(100.0*dt) iso 1 1 $(100.0*dt)
fix             fNPT all npt temp 400 400 25 iso 1 1 $(100.0*dt)
fix             fNPT all npt temp 400 400 25 iso 1 1 25
run             1200000
PPPM initialization ...
  G vector (1/distance) = 0.1164762
  grid = 4 4 4
  stencil order = 5
  estimated absolute RMS force accuracy = 0.28603046
  estimated relative force accuracy = 0.00086137223
  3d grid and FFT values/proc = 294 4
Generated 36 of 36 mixed pair_coeff terms from sixthpower/sixthpower mixing rule
Step          Temp          PotEng         E_vdwl         E_coul         E_bond        E_angle        E_dihed        E_impro        Density         Volume
12000103   420.29598      11548.444     -806.53079      577.82357      2934.5027      11776.377     -1714.3209      130.25909      1.0977318      54830.659
Averages over the last 31 of 62 rows, steps 12620000 to 13200103:
Temp PotEng E_vdwl E_coul E_bond E_angle E_dihed E_impro Density Volume
399.488 11079.4 -939.601 547.562 2840.55 11675.6 -1817.99 121.771 1.10935 54257.6
Loop time of 4010.86 on 24 procs for 1200000 steps with 5000 atoms

unfix           fNPT
unfix           fMOM
next            a
jump            SELF loop
variable        a loop 26
variable        b equal 600-20*($a-1)
variable        b equal 600-20*(12-1)
fix             fMOM all momentum 100 linear 1 1 1 angular
fix             fNPT all npt temp $b $b $(100.0*dt) iso 1 1 $(100.0*dt)
fix             fNPT all npt temp 380 $b $(100.0*dt) iso 1 1 $(100.0*dt)
fix             fNPT all npt temp 380 380 $(100.0*dt) iso 1 1 $(100.0*dt)
fix             fNPT all npt temp 380 380 25 iso 1 1 $(100.0*dt)
fix             fNPT all npt temp 380 380 25 iso 1 1 25
run             1200000
PPPM initialization ...
  G vector (1/distance) = 0.11698337
  grid = 4 4 4
  stencil order = 5
  estimated absolute RMS force accuracy = 0.28521836
  estimated relative force accuracy = 0.00085892662
  3d grid and FFT values/proc = 294 4
Generated 36 of 36 mixed pair_coeff terms from sixthpower/sixthpower mixing rule
Step          Temp          PotEng         E_vdwl         E_coul         E_bond        E_angle        E_dihed        E_impro        Density         Volume
13200103   399.38914      11106.911     -919.23001      549.93037      2876.7839      11664.034     -1833.3721      122.35561      1.1176632      53852.857
Averages over the last 31 of 62 rows, steps 13820000 to 14400103:
Temp PotEng E_vdwl E_coul E_bond E_angle E_dihed E_impro Density Volume
380.826 10736.5 -987.111 549.363 2736.46 11570.1 -1893.37 115.323 1.11593 53937.9
Loop time of 3995.37 on 24 procs for 1200000 steps with 5000 atoms

unfix           fNPT
unfix           fMOM
next            a
jump            SELF loop
variable        a loop 26
variable        b equal 600-20*($a-1)
variable        b equal 600-20*(13-1)
fix             fMOM all momentum 100 linear 1 1 1 angular
fix             fNPT all npt temp $b $b $(100.0*dt) iso 1 1 $(100.0*dt)
fix             fNPT all npt temp 360 $b $(100.0*dt) iso 1 1 $(100.0*dt)
fix             fNPT all npt temp 360 360 $(100.0*dt) iso 1 1 $(100.0*dt)
fix             fNPT all npt temp 360 360 25 iso 1 1 $(100.0*dt)
fix             fNPT all npt temp 360 360 25 iso 1 1 25
run             1200000
PPPM initialization ...
  G vector (1/distance) = 0.11693249
  grid = 4 4 4
  stencil order = 5
  estimated absolute RMS force accuracy = 0.28530065
  estimated relative force accuracy = 0.00085917442
  3d grid and FFT values/proc = 294 4
Generated 36 of 36 mixed pair_coeff terms from sixthpower/sixthpower mixing rule
Step          Temp          PotEng         E_vdwl         E_coul         E_bond        E_angle        E_dihed        E_impro        Density         Volume
14400103   375.23068      10814.081     -1016.7563      543.86586      2752.8931      11599.577     -1827.9679      115.7773       1.1156496      53950.056
Averages over the last 31 of 62 rows, steps 15020000 to 15600103:
Temp PotEng E_vdwl E_coul E_bond E_angle E_dihed E_impro Density Volume
359.214 10403.6 -1038.63 541.163 2624.2 11467.8 -1942.61 105.659 1.12594 53457.6
Loop time of 3980.64 on 24 procs for 1200000 steps with 5000 atoms

unfix           fNPT
unfix           fMOM
next            a
jump            SELF loop
variable        a loop 26
variable        b equal 600-20*($a-1)
variable        b equal 600-20*(14-1)
fix             fMOM all momentum 100 linear 1 1 1 angular
fix             fNPT all npt temp $b $b $(100.0*dt) iso 1 1 $(100.0*dt)
fix             fNPT all npt temp 340 $b $(100.0*dt) iso 1 1 $(100.0*dt)
fix             fNPT all npt temp 340 340 $(100.0*dt) iso 1 1 $(100.0*dt)
fix             fNPT all npt temp 340 340 25 iso 1 1 $(100.0*dt)
fix             fNPT all npt temp 340 340 25 iso 1 1 25
run             1200000
PPPM initialization ...
  G vector (1/distance) = 0.11723571
  grid = 4 4 4
  stencil order = 5
  estimated absolute RMS force accuracy = 0.28480756
  estimated relative force accuracy = 0.0008576895
  3d grid and FFT values/proc = 294 4
Generated 36 of 36 mixed pair_coeff terms from sixthpower/sixthpower mixing rule
Step          Temp          PotEng         E_vdwl         E_coul         E_bond        E_angle        E_dihed        E_impro        Density         Volume
15600103   358.33045      10405.039     -1049.661       523.5563       2629.4069      11452.813     -1888.0553      94.486667      1.1276974      53373.677
Averages over the last 31 of 62 rows, steps 16220000 to 16800103:
Temp PotEng E_vdwl E_coul E_bond E_angle E_dihed E_impro Density Volume
339.976 10131.3 -1064.9 539.042 2519.56 11369.6 -1974.8 100.224 1.12715 53400.5
Loop time of 4021.16 on 24 procs for 1200000 steps with 5000 atoms

unfix           fNPT
unfix           fMOM
next            a
jump            SELF loop
variable        a loop 26
variable        b equal 600-20*($a-1)
variable        b equal 600-20*(15-1)
fix             fMOM all momentum 100 linear 1 1 1 angular
fix             fNPT all npt temp $b $b $(100.0*dt) iso 1 1 $(100.0*dt)
fix             fNPT all npt temp 320 $b $(100.0*dt) iso 1 1 $(100.0*dt)
fix             fNPT all npt temp 320 320 $(100.0*dt) iso 1 1 $(100.0*dt)
fix             fNPT all npt temp 320 320 25 iso 1 1 $(100.0*dt)
fix             fNPT all npt temp 320 320 25 iso 1 1 25
run             1200000
PPPM initialization ...
  G vector (1/distance) = 0.11709561
  grid = 4 4 4
  stencil order = 5
  estimated absolute RMS force accuracy = 0.28503618
  estimated relative force accuracy = 0.000858378
  3d grid and FFT values/proc = 294 4
Generated 36 of 36 mixed pair_coeff terms from sixthpower/sixthpower mixing rule
Step          Temp          PotEng         E_vdwl         E_coul         E_bond        E_angle        E_dihed        E_impro        Density         Volume
16800103   335.79648      10268.571     -1038.5561      535.60141      2632.4601      11389.232     -1993.026       99.054499      1.1221168      53639.12
Averages over the last 31 of 62 rows, steps 17420000 to 18000103:
Temp PotEng E_vdwl E_coul E_bond E_angle E_dihed E_impro Density Volume
319.968 9797.07 -1098.38 524.133 2417.83 11262.2 -2044.91 91.9699 1.13221 53161.6
Loop time of 3992.2 on 24 procs for 1200000 steps with 5000 atoms

unfix           fNPT
unfix           fMOM
next            a
jump            SELF loop
variable        a loop 26
variable        b equal 600-20*($a-1)
variable        b equal 600-20*(16-1)
fix             fMOM all momentum 100 linear 1 1 1 angular
fix             fNPT all npt temp $b $b $(100.0*dt) iso 1 1 $(100.0*dt)
fix             fNPT all npt temp 300 $b $(100.0*dt) iso 1 1 $(100.0*dt)
fix             fNPT all npt temp 300 300 $(100.0*dt) iso 1 1 $(100.0*dt)
fix             fNPT all npt temp 300 300 25 iso 1 1 $(100.0*dt)
fix             fNPT all npt temp 300 300 25 iso 1 1 25
run             1200000
PPPM initialization ...
  G vector (1/distance) = 0.11731519
  grid = 4 4 4
  stencil order = 5
  estimated absolute RMS force accuracy = 0.28467725
  estimated relative force accuracy = 0.00085729708
  3d grid and FFT values/proc = 294 4
Generated 36 of 36 mixed pair_coeff terms from sixthpower/sixthpower mixing rule
Step          Temp          PotEng         E_vdwl         E_coul         E_bond        E_angle        E_dihed        E_impro        Density         Volume
18000103   317.44307      9798.6397     -1075.3519      528.33157      2395.2069      11298.445     -2079.0339      89.806176      1.1308742      53223.745
Averages over the last 31 of 62 rows, steps 18620000 to 19200103:
Temp PotEng E_vdwl E_coul E_bond E_angle E_dihed E_impro Density Volume
300.431 9447.15 -1149.13 528.961 2290.33 11149.2 -2096.74 82.9373 1.14001 52798.1
Loop time of 4018.34 on 24 procs for 1200000 steps with 5000 atoms

unfix           fNPT
unfix           fMOM
next            a
jump            SELF loop
variable        a loop 26
variable        b equal 600-20*($a-1)
variable        b equal 600-20*(17-1)
fix             fMOM all momentum 100 linear 1 1 1 angular
fix             fNPT all npt temp $b $b $(100.0*dt) iso 1 1 $(100.0*dt)
fix             fNPT all npt temp 280 $b $(100.0*dt) iso 1 1 $(100.0*dt)
fix             fNPT all npt temp 280 280 $(100.0*dt) iso 1 1 $(100.0*dt)
fix             fNPT all npt temp 280 280 25 iso 1 1 $(100.0*dt)
fix             fNPT all npt temp 280 280 25 iso 1 1 25
run             1200000
PPPM initialization ...
  G vector (1/distance) = 0.11769573
  grid = 4 4 4
  stencil order = 5
  estimated absolute RMS force accuracy = 0.28404724
  estimated relative force accuracy = 0.00085539983
  3d grid and FFT values/proc = 294 4
Generated 36 of 36 mixed pair_coeff terms from sixthpower/sixthpower mixing rule
Step          Temp          PotEng         E_vdwl         E_coul         E_bond        E_angle        E_dihed        E_impro        Density         Volume
19200103   300.27759      9411.1507     -1135.8135      547.65912      2300.1815      11092.78      -2105.631       75.204445      1.1461933      52512.398
Averages over the last 31 of 62 rows, steps 19820000 to 20400103:
Temp PotEng E_vdwl E_coul E_bond E_angle E_dihed E_impro Density Volume
280.106 9126.56 -1191.7 520.173 2188.93 11038.4 -2140.77 74.3334 1.14684 52483.6
Loop time of 4018.1 on 24 procs for 1200000 steps with 5000 atoms

unfix           fNPT
unfix           fMOM
next            a
jump            SELF loop
variable        a loop 26
variable        b equal 600-20*($a-1)
variable        b equal 600-20*(18-1)
fix             fMOM all momentum 100 linear 1 1 1 angular
fix             fNPT all npt temp $b $b $(100.0*dt) iso 1 1 $(100.0*dt)
fix             fNPT all npt temp 260 $b $(100.0*dt) iso 1 1 $(100.0*dt)
fix             fNPT all npt temp 260 260 $(100.0*dt) iso 1 1 $(100.0*dt)
fix             fNPT all npt temp 260 260 25 iso 1 1 $(100.0*dt)
fix             fNPT all npt temp 260 260 25 iso 1 1 25
run             1200000
PPPM initialization ...
  G vector (1/distance) = 0.11780601
  grid = 4 4 4
  stencil order = 5
  estimated absolute RMS force accuracy = 0.2838628
  estimated relative force accuracy = 0.00085484441
  3d grid and FFT values/proc = 294 4
Generated 36 of 36 mixed pair_coeff terms from sixthpower/sixthpower mixing rule
Step          Temp          PotEng         E_vdwl         E_coul         E_bond        E_angle        E_dihed        E_impro        Density         Volume
20400103   279.69866      9124.2313     -1135.4064      516.88719      2194.6147      11018.793     -2179.3283      72.859301      1.1506665      52308.259
Averages over the last 31 of 62 rows, steps 21020000 to 21600103:
Temp PotEng E_vdwl E_coul E_bond E_angle E_dihed E_impro Density Volume
260.402 8820.52 -1219.58 518.324 2081.55 10935.7 -2200.27 68.878 1.15027 52326.8
Loop time of 4023.26 on 24 procs for 1200000 steps with 5000 atoms

unfix           fNPT
unfix           fMOM
next            a
jump            SELF loop
variable        a loop 26
variable        b equal 600-20*($a-1)
variable        b equal 600-20*(19-1)
fix             fMOM all momentum 100 linear 1 1 1 angular
fix             fNPT all npt temp $b $b $(100.0*dt) iso 1 1 $(100.0*dt)
fix             fNPT all npt temp 240 $b $(100.0*dt) iso 1 1 $(100.0*dt)
fix             fNPT all npt temp 240 240 $(100.0*dt) iso 1 1 $(100.0*dt)
fix             fNPT all npt temp 240 240 25 iso 1 1 $(100.0*dt)
fix             fNPT all npt temp 240 240 25 iso 1 1 25
run             1200000
PPPM initialization ...
  G vector (1/distance) = 0.11776185
  grid = 4 4 4
  stencil order = 5
  estimated absolute RMS force accuracy = 0.28393675
  estimated relative force accuracy = 0.0008550671
  3d grid and FFT values/proc = 294 4
Generated 36 of 36 mixed pair_coeff terms from sixthpower/sixthpower mixing rule
Step          Temp          PotEng         E_vdwl         E_coul         E_bond        E_angle        E_dihed        E_impro        Density         Volume
21600103   261.50008      8815.3103     -1187.0227      525.26706      2065.7525      10897.935     -2194.5954      71.373289      1.1488736      52389.888
Averages over the last 31 of 62 rows, steps 22220000 to 22800103:
Temp PotEng E_vdwl E_coul E_bond E_angle E_dihed E_impro Density Volume
240.073 8511.37 -1264.9 520.436 1966.2 10821.2 -2228.65 60.6874 1.15586 52073.8
Loop time of 4029.63 on 24 procs for 1200000 steps with 5000 atoms

unfix           fNPT
unfix           fMOM
next            a
jump            SELF loop
variable        a loop 26
variable        b equal 600-20*($a-1)
variable        b equal 600-20*(20-1)
fix             fMOM all momentum 100 linear 1 1 1 angular
fix             fNPT all npt temp $b $b $(100.0*dt) iso 1 1 $(100.0*dt)
fix             fNPT all npt temp 220 $b $(100.0*dt) iso 1 1 $(100.0*dt)
fix             fNPT all npt temp 220 220 $(100.0*dt) iso 1 1 $(100.0*dt)
fix             fNPT all npt temp 220 220 25 iso 1 1 $(100.0*dt)
fix             fNPT all npt temp 220 220 25 iso 1 1 25
run             1200000
PPPM initialization ...
  G vector (1/distance) = 0.11787498
  grid = 4 4 4
  stencil order = 5
  estimated absolute RMS force accuracy = 0.28374702
  estimated relative force accuracy = 0.00085449573
  3d grid and FFT values/proc = 294 4
Generated 36 of 36 mixed pair_coeff terms from sixthpower/sixthpower mixing rule
Step          Temp          PotEng         E_vdwl         E_coul         E_bond        E_angle        E_dihed        E_impro        Density         Volume
22800103   238.37643      8480.7635     -1277.9835      506.57584      1974.023       10783.203     -2201.2148      60.656514      1.153472       52181.031
Averages over the last 31 of 62 rows, steps 23420000 to 24000103:
Temp PotEng E_vdwl E_coul E_bond E_angle E_dihed E_impro Density Volume
219.73 8200.83 -1294.16 524.157 1862.25 10699.2 -2277.22 51.6443 1.1614 51825.2
Loop time of 4030.11 on 24 procs for 1200000 steps with 5000 atoms

unfix           fNPT
unfix           fMOM
next            a
jump            SELF loop
variable        a loop 26
variable        b equal 600-20*($a-1)
variable        b equal 600-20*(21-1)
fix             fMOM all momentum 100 linear 1 1 1 angular
fix             fNPT all npt temp $b $b $(100.0*dt) iso 1 1 $(100.0*dt)
fix             fNPT all npt temp 200 $b $(100.0*dt) iso 1 1 $(100.0*dt)
fix             fNPT all npt temp 200 200 $(100.0*dt) iso 1 1 $(100.0*dt)
fix             fNPT all npt temp 200 200 25 iso 1 1 $(100.0*dt)
fix             fNPT all npt temp 200 200 25 iso 1 1 25
run             1200000
PPPM initialization ...
  G vector (1/distance) = 0.11803192
  grid = 4 4 4
  stencil order = 5
  estimated absolute RMS force accuracy = 0.28348236
  estimated relative force accuracy = 0.00085369872
  3d grid and FFT values/proc = 294 4
Generated 36 of 36 mixed pair_coeff terms from sixthpower/sixthpower mixing rule
Step          Temp          PotEng         E_vdwl         E_coul         E_bond        E_angle        E_dihed        E_impro        Density         Volume
24000103   220.64352      8215.5576     -1291.7841      522.4604       1854.739       10743.132     -2303.0766      56.817476      1.1598779      51892.841
Averages over the last 31 of 62 rows, steps 24620000 to 25200103:
Temp PotEng E_vdwl E_coul E_bond E_angle E_dihed E_impro Density Volume
199.881 7890.99 -1334.64 522.488 1745.13 10602 -2321.23 44.0974 1.16479 51674.2
Loop time of 4027.74 on 24 procs for 1200000 steps with 5000 atoms
