LAMMPS (22 Dec 2022)
# PREREQUISITES:
#
#     You must use moltemplate.sh to create 3 files:
#        system.data  system.in.init  system.in.settings
#     (Follow the instructions in README_setup.sh,
#      or run the file as a script using ./README_setup.sh)

# ------------------------------- Initialization Section --------------------

units real
atom_style full
pair_style lj/class2/coul/long 10.0 10.0
bond_style class2
angle_style class2
dihedral_style class2
improper_style class2
pair_modify	mix sixthpower tail yes
special_bonds	lj/coul 0 0 1
kspace_style pppm/cg 0.0001

# ------------------------------- Atom Definition Section -------------------

read_data       "pack_mol.data" extra/bond/per/atom 1 extra/angle/per/atom 12 extra/dihedral/per/atom 12 extra/improper/per/atom 12 extra/special/per/atom 12
Reading data file ...
  orthogonal box = (0 0 0) to (49.718356 49.718356 49.718356)
  reading atoms ...
  5016 atoms
  scanning bonds ...
  scanning angles ...
  scanning dihedrals ...
  scanning impropers ...
  reading bonds ...
  5412 bonds
  reading angles ...
  11088 angles
  reading dihedrals ...
  17688 dihedrals
  reading impropers ...
  6996 impropers
Finding 1-2 1-3 1-4 neighbors ...
     4 = max # of 1-2 neighbors
     9 = max # of 1-3 neighbors
    25 = max # of special neighbors

include calc.pram
# Pair Coeffs

pair_coeff	 1  1    0.05400    4.01000  # c,c
pair_coeff	 2  2    0.05400    4.01000  # c1,c1
pair_coeff	 3  3    0.12000    3.81000  # c_1,c_1
pair_coeff	 4  4    0.02000    2.99500  # hc,hc
pair_coeff	 5  5    0.24000    3.53500  # o3e,o3e
pair_coeff	 6  6    0.26700    3.30000  # o_1,o_1
pair_coeff	 7  7    0.24000    3.42000  # o_2,o_2

# Bond Coeffs

bond_coeff	 1    1.53000  299.67000 -501.77000  679.81000  # c,c
bond_coeff	 2    1.53000  299.67000 -501.77000  679.81000  # c,c1
bond_coeff	 3    1.10100  345.00000 -691.89000  844.60000  # c,hc
bond_coeff	 4    1.43000  326.72730 -608.53060  689.03330  # c,o_2
bond_coeff	 5    1.53000  299.67000 -501.77000  679.81000  # c1,c1
bond_coeff	 6    1.52020  253.70670 -423.03700  396.90000  # c1,c_1
bond_coeff	 7    1.10100  345.00000 -691.89000  844.60000  # c1,hc
bond_coeff	 8    1.42000  400.39540 -835.19510 1313.01420  # c1,o3e
bond_coeff	 9    1.20200  851.14030 -1918.48820 2160.76590  # c_1,o_1
bond_coeff	10    1.36830  367.14810 -794.79080 1055.23190  # c_1,o_2

# Angle Coeffs

angle_coeff	 1  112.67000   39.51600   -7.44300   -9.55830  # c,c,c1
angle_coeff	 2  110.77000   41.45300  -10.60400    5.12900  # c,c,hc
angle_coeff	 3  112.67000   39.51600   -7.44300   -9.55830  # c,c1,c
angle_coeff	 4  112.67000   39.51600   -7.44300   -9.55830  # c,c1,c1
angle_coeff	 5  108.52950   51.97470   -9.48510  -10.99850  # c,c1,c_1
angle_coeff	 6  110.77000   41.45300  -10.60400    5.12900  # c,c1,hc
angle_coeff	 7  111.27000   54.53810   -8.36420  -13.08380  # c,c1,o3e
angle_coeff	 8  113.28800   61.28680  -28.97860    7.99290  # c,o_2,c_1
angle_coeff	 9  112.67000   39.51600   -7.44300   -9.55830  # c1,c,c1
angle_coeff	10  110.77000   41.45300  -10.60400    5.12900  # c1,c,hc
angle_coeff	11  107.41000   63.39070  -13.45130    1.66500  # c1,c,o_2
angle_coeff	12  110.77000   41.45300  -10.60400    5.12900  # c1,c1,hc
angle_coeff	13  111.27000   54.53810   -8.36420  -13.08380  # c1,c1,o3e
angle_coeff	14  123.14510   55.54310  -17.21230    0.13480  # c1,c_1,o_1
angle_coeff	15  100.31820   38.86310   -3.83230   -7.98020  # c1,c_1,o_2
angle_coeff	16  104.50000   35.74540  -10.00670   -6.27290  # c1,o3e,c1
angle_coeff	17  107.73360   40.60990  -28.81210    0.00000  # c_1,c1,hc
angle_coeff	18  107.66000   39.64100  -12.92100   -2.43180  # hc,c,hc
angle_coeff	19  107.68800   65.48010  -10.34980    5.88660  # hc,c,o_2
angle_coeff	20  108.72800   58.54460  -10.80880  -12.40060  # hc,c1,o3e
angle_coeff	21  120.79700   95.34460  -32.28690    6.37780  # o_1,c_1,o_2

# BondBond Coeffs

angle_coeff	 1 bb    0.00000    1.53000    1.53000  # c,c,c1
angle_coeff	 2 bb    3.38720    1.53000    1.10100  # c,c,hc
angle_coeff	 3 bb    0.00000    1.53000    1.53000  # c,c1,c
angle_coeff	 4 bb    0.00000    1.53000    1.53000  # c,c1,c1
angle_coeff	 5 bb    5.41990    1.53000    1.52020  # c,c1,c_1
angle_coeff	 6 bb    3.38720    1.53000    1.10100  # c,c1,hc
angle_coeff	 7 bb   11.43180    1.53000    1.42000  # c,c1,o3e
angle_coeff	 8 bb   45.45030    1.43000    1.36830  # c,o_2,c_1
angle_coeff	 9 bb    0.00000    1.53000    1.53000  # c1,c,c1
angle_coeff	10 bb    3.38720    1.53000    1.10100  # c1,c,hc
angle_coeff	11 bb   23.26470    1.53000    1.43000  # c1,c,o_2
angle_coeff	12 bb    3.38720    1.53000    1.10100  # c1,c1,hc
angle_coeff	13 bb   11.43180    1.53000    1.42000  # c1,c1,o3e
angle_coeff	14 bb   46.06850    1.52020    1.20200  # c1,c_1,o_1
angle_coeff	15 bb   19.10690    1.52020    1.36830  # c1,c_1,o_2
angle_coeff	16 bb   -7.11310    1.42000    1.42000  # c1,o3e,c1
angle_coeff	17 bb    0.71150    1.52020    1.10100  # c_1,c1,hc
angle_coeff	18 bb    5.33160    1.10100    1.10100  # hc,c,hc
angle_coeff	19 bb    5.64540    1.10100    1.43000  # hc,c,o_2
angle_coeff	20 bb   23.19790    1.10100    1.42000  # hc,c1,o3e
angle_coeff	21 bb  121.48800    1.20200    1.36830  # o_1,c_1,o_2

# BondAngle Coeffs

angle_coeff	 1 ba    8.01600    8.01600    1.53000    1.53000  # c,c,c1
angle_coeff	 2 ba   20.75400   11.42100    1.53000    1.10100  # c,c,hc
angle_coeff	 3 ba    8.01600    8.01600    1.53000    1.53000  # c,c1,c
angle_coeff	 4 ba    8.01600    8.01600    1.53000    1.53000  # c,c1,c1
angle_coeff	 5 ba   15.87580   18.16780    1.53000    1.52020  # c,c1,c_1
angle_coeff	 6 ba   20.75400   11.42100    1.53000    1.10100  # c,c1,hc
angle_coeff	 7 ba    2.68680   20.40330    1.53000    1.42000  # c,c1,o3e
angle_coeff	 8 ba   46.46080   41.91160    1.43000    1.36830  # c,o_2,c_1
angle_coeff	 9 ba    8.01600    8.01600    1.53000    1.53000  # c1,c,c1
angle_coeff	10 ba   11.42100   20.75400    1.53000    1.10100  # c1,c,hc
angle_coeff	11 ba   47.94870   23.39200    1.53000    1.43000  # c1,c,o_2
angle_coeff	12 ba   11.42100   20.75400    1.53000    1.10100  # c1,c1,hc
angle_coeff	13 ba    2.68680   20.40330    1.53000    1.42000  # c1,c1,o3e
angle_coeff	14 ba   37.12980   34.99820    1.52020    1.20200  # c1,c_1,o_1
angle_coeff	15 ba    4.69780    1.34350    1.52020    1.36830  # c1,c_1,o_2
angle_coeff	16 ba   -2.81120   -2.81120    1.42000    1.42000  # c1,o3e,c1
angle_coeff	17 ba   12.46320    9.17650    1.52020    1.10100  # c_1,c1,hc
angle_coeff	18 ba   18.10300   18.10300    1.10100    1.10100  # hc,c,hc
angle_coeff	19 ba   57.49750    8.68640    1.10100    1.43000  # hc,c,o_2
angle_coeff	20 ba    4.61890   55.32700    1.10100    1.42000  # hc,c1,o3e
angle_coeff	21 ba   76.26140   71.87610    1.20200    1.36830  # o_1,c_1,o_2

# Dihedral Coeffs

dihedral_coeff	 1    0.00000    0.00000    0.05140    0.00000   -0.14300    0.00000  # c,c,c1,c
dihedral_coeff	 2    0.00000    0.00000    0.05140    0.00000   -0.14300    0.00000  # c,c,c1,c1
dihedral_coeff	 3    0.09720    0.00000    0.07220    0.00000   -0.25810    0.00000  # c,c,c1,c_1
dihedral_coeff	 4    0.00000    0.00000    0.03160    0.00000   -0.16810    0.00000  # c,c,c1,hc
dihedral_coeff	 5    0.71370    0.00000    0.26600    0.00000   -0.25450    0.00000  # c,c,c1,o3e
dihedral_coeff	 6    0.00000    0.00000    0.05140    0.00000   -0.14300    0.00000  # c,c1,c,c1
dihedral_coeff	 7    0.00000    0.00000    0.03160    0.00000   -0.16810    0.00000  # c,c1,c,hc
dihedral_coeff	 8    0.00000    0.00000    0.00000    0.00000   -0.25000    0.00000  # c,c1,c,o_2
dihedral_coeff	 9    0.00000    0.00000    0.05140    0.00000   -0.14300    0.00000  # c,c1,c1,c
dihedral_coeff	10    0.00000    0.00000    0.03160    0.00000   -0.16810    0.00000  # c,c1,c1,hc
dihedral_coeff	11    0.71370    0.00000    0.26600    0.00000   -0.25450    0.00000  # c,c1,c1,o3e
dihedral_coeff	12    0.04420    0.00000    0.02920    0.00000    0.05620    0.00000  # c,c1,c_1,o_1
dihedral_coeff	13    1.83410    0.00000    2.06030    0.00000   -0.01950    0.00000  # c,c1,c_1,o_2
dihedral_coeff	14   -0.52030    0.00000   -0.30280    0.00000   -0.34500    0.00000  # c,c1,o3e,c1
dihedral_coeff	15   -2.55940    0.00000    2.20130    0.00000    0.03250    0.00000  # c,o_2,c_1,c1
dihedral_coeff	16    0.00000    0.00000    2.20890    0.00000    0.00000    0.00000  # c,o_2,c_1,o_1
dihedral_coeff	17    0.00000    0.00000    0.05140    0.00000   -0.14300    0.00000  # c1,c,c,c1
dihedral_coeff	18    0.00000    0.00000    0.03160    0.00000   -0.16810    0.00000  # c1,c,c,hc
dihedral_coeff	19    0.00000    0.00000    0.05140    0.00000   -0.14300    0.00000  # c1,c,c1,c1
dihedral_coeff	20    0.09720    0.00000    0.07220    0.00000   -0.25810    0.00000  # c1,c,c1,c_1
dihedral_coeff	21    0.00000    0.00000    0.03160    0.00000   -0.16810    0.00000  # c1,c,c1,hc
dihedral_coeff	22    0.71370    0.00000    0.26600    0.00000   -0.25450    0.00000  # c1,c,c1,o3e
dihedral_coeff	23    0.00000    0.00000    0.00000    0.00000   -0.19320    0.00000  # c1,c,o_2,c_1
dihedral_coeff	24    0.00000    0.00000    0.03160    0.00000   -0.16810    0.00000  # c1,c1,c,hc
dihedral_coeff	25    0.53020    0.00000    0.00000    0.00000   -0.39660    0.00000  # c1,o3e,c1,hc
dihedral_coeff	26   -0.02280    0.00000    0.02800    0.00000   -0.18630    0.00000  # c_1,c1,c,hc
dihedral_coeff	27    0.00000    0.00000    0.00000    0.00000   -0.19320    0.00000  # c_1,o_2,c,hc
dihedral_coeff	28   -0.14320    0.00000    0.06170    0.00000   -0.10830    0.00000  # hc,c,c,hc
dihedral_coeff	29   -0.14320    0.00000    0.06170    0.00000   -0.10830    0.00000  # hc,c,c1,hc
dihedral_coeff	30   -0.14350    0.00000    0.25300    0.00000   -0.09050    0.00000  # hc,c,c1,o3e
dihedral_coeff	31    0.00000    0.00000    0.00000    0.00000   -0.25000    0.00000  # hc,c1,c,o_2
dihedral_coeff	32   -0.14320    0.00000    0.06170    0.00000   -0.10830    0.00000  # hc,c1,c1,hc
dihedral_coeff	33   -0.14350    0.00000    0.25300    0.00000   -0.09050    0.00000  # hc,c1,c1,o3e
dihedral_coeff	34   -0.18040    0.00000    0.00120    0.00000    0.03710    0.00000  # hc,c1,c_1,o_1
dihedral_coeff	35   -0.63590    0.00000    1.48070    0.00000   -0.04380    0.00000  # hc,c1,c_1,o_2

# MiddleBondTorsion Coeffs

dihedral_coeff	 1 mbt  -17.78700   -7.18770    0.00000    1.53000  # c,c,c1,c
dihedral_coeff	 2 mbt  -17.78700   -7.18770    0.00000    1.53000  # c,c,c1,c1
dihedral_coeff	 3 mbt   -1.59450    0.22670   -0.69110    1.53000  # c,c,c1,c_1
dihedral_coeff	 4 mbt  -14.87900   -3.65810   -0.31380    1.53000  # c,c,c1,hc
dihedral_coeff	 5 mbt  -21.88420   -7.67640   -0.68680    1.53000  # c,c,c1,o3e
dihedral_coeff	 6 mbt  -17.78700   -7.18770    0.00000    1.53000  # c,c1,c,c1
dihedral_coeff	 7 mbt  -14.87900   -3.65810   -0.31380    1.53000  # c,c1,c,hc
dihedral_coeff	 8 mbt    0.00000    0.00000    0.00000    1.53000  # c,c1,c,o_2
dihedral_coeff	 9 mbt  -17.78700   -7.18770    0.00000    1.53000  # c,c1,c1,c
dihedral_coeff	10 mbt  -14.87900   -3.65810   -0.31380    1.53000  # c,c1,c1,hc
dihedral_coeff	11 mbt  -21.88420   -7.67640   -0.68680    1.53000  # c,c1,c1,o3e
dihedral_coeff	12 mbt    0.33880   -0.10960    0.12190    1.52020  # c,c1,c_1,o_1
dihedral_coeff	13 mbt  -17.32800   -5.79000   -3.21140    1.52020  # c,c1,c_1,o_2
dihedral_coeff	14 mbt   -5.92880   -2.70070   -0.31750    1.42000  # c,c1,o3e,c1
dihedral_coeff	15 mbt    1.34450    3.55150   -4.92020    1.36830  # c,o_2,c_1,c1
dihedral_coeff	16 mbt    4.26000    0.00000    0.00000    1.36830  # c,o_2,c_1,o_1
dihedral_coeff	17 mbt  -17.78700   -7.18770    0.00000    1.53000  # c1,c,c,c1
dihedral_coeff	18 mbt  -14.87900   -3.65810   -0.31380    1.53000  # c1,c,c,hc
dihedral_coeff	19 mbt  -17.78700   -7.18770    0.00000    1.53000  # c1,c,c1,c1
dihedral_coeff	20 mbt   -1.59450    0.22670   -0.69110    1.53000  # c1,c,c1,c_1
dihedral_coeff	21 mbt  -14.87900   -3.65810   -0.31380    1.53000  # c1,c,c1,hc
dihedral_coeff	22 mbt  -21.88420   -7.67640   -0.68680    1.53000  # c1,c,c1,o3e
dihedral_coeff	23 mbt   -5.43500    0.00000    0.00000    1.43000  # c1,c,o_2,c_1
dihedral_coeff	24 mbt  -14.87900   -3.65810   -0.31380    1.53000  # c1,c1,c,hc
dihedral_coeff	25 mbt   -6.80070   -4.65460   -1.41010    1.42000  # c1,o3e,c1,hc
dihedral_coeff	26 mbt   -3.50390    1.24580   -0.76100    1.53000  # c_1,c1,c,hc
dihedral_coeff	27 mbt    0.00000    0.00000    0.00000    1.43000  # c_1,o_2,c,hc
dihedral_coeff	28 mbt  -14.26100   -0.53220   -0.48640    1.53000  # hc,c,c,hc
dihedral_coeff	29 mbt  -14.26100   -0.53220   -0.48640    1.53000  # hc,c,c1,hc
dihedral_coeff	30 mbt  -16.79750   -1.22960   -0.27500    1.53000  # hc,c,c1,o3e
dihedral_coeff	31 mbt    0.00000    0.00000    0.00000    1.53000  # hc,c1,c,o_2
dihedral_coeff	32 mbt  -14.26100   -0.53220   -0.48640    1.53000  # hc,c1,c1,hc
dihedral_coeff	33 mbt  -16.79750   -1.22960   -0.27500    1.53000  # hc,c1,c1,o3e
dihedral_coeff	34 mbt    0.23590    0.91390    0.95940    1.52020  # hc,c1,c_1,o_1
dihedral_coeff	35 mbt  -13.76860   -2.59590    1.19340    1.52020  # hc,c1,c_1,o_2

# EndBondTorsion Coeffs

dihedral_coeff	 1 ebt   -0.07320    0.00000    0.00000   -0.07320    0.00000    0.00000    1.53000    1.53000  # c,c,c1,c
dihedral_coeff	 2 ebt   -0.07320    0.00000    0.00000   -0.07320    0.00000    0.00000    1.53000    1.53000  # c,c,c1,c1
dihedral_coeff	 3 ebt    0.00550    0.00600   -0.00090    0.00620   -0.00020    0.00360    1.53000    1.52020  # c,c,c1,c_1
dihedral_coeff	 4 ebt    0.24860    0.24220   -0.09250    0.08140    0.05910    0.22190    1.53000    1.10100  # c,c,c1,hc
dihedral_coeff	 5 ebt   -0.31900    0.44110   -0.71740    1.15380    0.84090   -0.91380    1.53000    1.42000  # c,c,c1,o3e
dihedral_coeff	 6 ebt   -0.07320    0.00000    0.00000   -0.07320    0.00000    0.00000    1.53000    1.53000  # c,c1,c,c1
dihedral_coeff	 7 ebt    0.24860    0.24220   -0.09250    0.08140    0.05910    0.22190    1.53000    1.10100  # c,c1,c,hc
dihedral_coeff	 8 ebt    0.00000    0.00000    0.00000    0.00000    0.00000    0.00000    1.53000    1.43000  # c,c1,c,o_2
dihedral_coeff	 9 ebt   -0.07320    0.00000    0.00000   -0.07320    0.00000    0.00000    1.53000    1.53000  # c,c1,c1,c
dihedral_coeff	10 ebt    0.24860    0.24220   -0.09250    0.08140    0.05910    0.22190    1.53000    1.10100  # c,c1,c1,hc
dihedral_coeff	11 ebt   -0.31900    0.44110   -0.71740    1.15380    0.84090   -0.91380    1.53000    1.42000  # c,c1,c1,o3e
dihedral_coeff	12 ebt   -0.28100    0.08160   -0.15220    0.26540    0.05030    0.10460    1.53000    1.20200  # c,c1,c_1,o_1
dihedral_coeff	13 ebt    0.00000    0.00000    0.00000    0.00000    0.00000    0.00000    1.53000    1.36830  # c,c1,c_1,o_2
dihedral_coeff	14 ebt   -0.24560    1.05170   -0.77950    0.47410    1.26350    0.55760    1.53000    1.42000  # c,c1,o3e,c1
dihedral_coeff	15 ebt    0.00000    0.00000    0.00000    0.00000    0.00000    0.00000    1.43000    1.52020  # c,o_2,c_1,c1
dihedral_coeff	16 ebt    0.00000    0.00000    0.00000    0.00000    0.00000    0.00000    1.43000    1.20200  # c,o_2,c_1,o_1
dihedral_coeff	17 ebt   -0.07320    0.00000    0.00000   -0.07320    0.00000    0.00000    1.53000    1.53000  # c1,c,c,c1
dihedral_coeff	18 ebt    0.08140    0.05910    0.22190    0.24860    0.24220   -0.09250    1.53000    1.10100  # c1,c,c,hc
dihedral_coeff	19 ebt   -0.07320    0.00000    0.00000   -0.07320    0.00000    0.00000    1.53000    1.53000  # c1,c,c1,c1
dihedral_coeff	20 ebt    0.00550    0.00600   -0.00090    0.00620   -0.00020    0.00360    1.53000    1.52020  # c1,c,c1,c_1
dihedral_coeff	21 ebt    0.08140    0.05910    0.22190    0.24860    0.24220   -0.09250    1.53000    1.10100  # c1,c,c1,hc
dihedral_coeff	22 ebt   -0.31900    0.44110   -0.71740    1.15380    0.84090   -0.91380    1.53000    1.42000  # c1,c,c1,o3e
dihedral_coeff	23 ebt    0.00000    0.00000    0.00000    0.00000    0.00000    0.00000    1.53000    1.36830  # c1,c,o_2,c_1
dihedral_coeff	24 ebt    0.08140    0.05910    0.22190    0.24860    0.24220   -0.09250    1.53000    1.10100  # c1,c1,c,hc
dihedral_coeff	25 ebt   -0.60540    1.33390    0.96480   -0.16200    0.15640   -1.14080    1.42000    1.10100  # c1,o3e,c1,hc
dihedral_coeff	26 ebt   -0.02040    0.36280   -0.44260   -0.00970   -0.03150   -0.07550    1.52020    1.10100  # c_1,c1,c,hc
dihedral_coeff	27 ebt    0.00000    0.00000    0.00000    0.00000    0.00000    0.00000    1.36830    1.10100  # c_1,o_2,c,hc
dihedral_coeff	28 ebt    0.21300    0.31200    0.07770    0.21300    0.31200    0.07770    1.10100    1.10100  # hc,c,c,hc
dihedral_coeff	29 ebt    0.21300    0.31200    0.07770    0.21300    0.31200    0.07770    1.10100    1.10100  # hc,c,c1,hc
dihedral_coeff	30 ebt    0.96810    0.95510    0.04360    0.59030    0.66690    0.85840    1.10100    1.42000  # hc,c,c1,o3e
dihedral_coeff	31 ebt    0.00000    0.00000    0.00000    0.00000    0.00000    0.00000    1.10100    1.43000  # hc,c1,c,o_2
dihedral_coeff	32 ebt    0.21300    0.31200    0.07770    0.21300    0.31200    0.07770    1.10100    1.10100  # hc,c1,c1,hc
dihedral_coeff	33 ebt    0.96810    0.95510    0.04360    0.59030    0.66690    0.85840    1.10100    1.42000  # hc,c1,c1,o3e
dihedral_coeff	34 ebt   -0.22980    0.03540    0.38530    1.21430    0.28310    0.39160    1.10100    1.20200  # hc,c1,c_1,o_1
dihedral_coeff	35 ebt    0.00000    0.00000    0.00000    0.00000    0.00000    0.00000    1.10100    1.36830  # hc,c1,c_1,o_2

# AngleTorsion Coeffs

dihedral_coeff	 1 at    0.38860   -0.31390    0.13890    0.38860   -0.31390    0.13890  112.67000  112.67000  # c,c,c1,c
dihedral_coeff	 2 at    0.38860   -0.31390    0.13890    0.38860   -0.31390    0.13890  112.67000  112.67000  # c,c,c1,c1
dihedral_coeff	 3 at    0.05150   -0.06740   -0.04740   -0.26070    0.32030   -0.22830  112.67000  108.52950  # c,c,c1,c_1
dihedral_coeff	 4 at   -0.24540    0.00000   -0.11360    0.31130    0.45160   -0.19880  112.67000  110.77000  # c,c,c1,hc
dihedral_coeff	 5 at    0.56230   -0.30410   -0.40150    0.96720   -0.75660   -1.23310  112.67000  111.27000  # c,c,c1,o3e
dihedral_coeff	 6 at    0.38860   -0.31390    0.13890    0.38860   -0.31390    0.13890  112.67000  112.67000  # c,c1,c,c1
dihedral_coeff	 7 at   -0.24540    0.00000   -0.11360    0.31130    0.45160   -0.19880  112.67000  110.77000  # c,c1,c,hc
dihedral_coeff	 8 at    0.00000    0.00000    0.00000    0.00000    0.00000    0.00000  112.67000  107.41000  # c,c1,c,o_2
dihedral_coeff	 9 at    0.38860   -0.31390    0.13890    0.38860   -0.31390    0.13890  112.67000  112.67000  # c,c1,c1,c
dihedral_coeff	10 at   -0.24540    0.00000   -0.11360    0.31130    0.45160   -0.19880  112.67000  110.77000  # c,c1,c1,hc
dihedral_coeff	11 at    0.56230   -0.30410   -0.40150    0.96720   -0.75660   -1.23310  112.67000  111.27000  # c,c1,c1,o3e
dihedral_coeff	12 at    0.67500    0.59650    0.67250    0.08850   -1.37030   -0.54520  108.52950  123.14510  # c,c1,c_1,o_1
dihedral_coeff	13 at    0.00000    0.00000    0.00000    0.00000    0.00000    0.00000  108.52950  100.31820  # c,c1,c_1,o_2
dihedral_coeff	14 at   -2.74660    1.48770   -0.89550    0.56760    0.94500    0.07030  111.27000  104.50000  # c,c1,o3e,c1
dihedral_coeff	15 at    0.00000    0.00000    0.00000    0.00000    0.00000    0.00000  113.28800  100.31820  # c,o_2,c_1,c1
dihedral_coeff	16 at    0.00000    0.00000    0.00000    0.00000    0.00000    0.00000  113.28800  120.79700  # c,o_2,c_1,o_1
dihedral_coeff	17 at    0.38860   -0.31390    0.13890    0.38860   -0.31390    0.13890  112.67000  112.67000  # c1,c,c,c1
dihedral_coeff	18 at    0.31130    0.45160   -0.19880   -0.24540    0.00000   -0.11360  112.67000  110.77000  # c1,c,c,hc
dihedral_coeff	19 at    0.38860   -0.31390    0.13890    0.38860   -0.31390    0.13890  112.67000  112.67000  # c1,c,c1,c1
dihedral_coeff	20 at    0.05150   -0.06740   -0.04740   -0.26070    0.32030   -0.22830  112.67000  108.52950  # c1,c,c1,c_1
dihedral_coeff	21 at    0.31130    0.45160   -0.19880   -0.24540    0.00000   -0.11360  112.67000  110.77000  # c1,c,c1,hc
dihedral_coeff	22 at    0.56230   -0.30410   -0.40150    0.96720   -0.75660   -1.23310  112.67000  111.27000  # c1,c,c1,o3e
dihedral_coeff	23 at    0.00000    0.00000    0.00000    0.00000    0.00000    0.00000  107.41000  113.28800  # c1,c,o_2,c_1
dihedral_coeff	24 at    0.31130    0.45160   -0.19880   -0.24540    0.00000   -0.11360  112.67000  110.77000  # c1,c1,c,hc
dihedral_coeff	25 at   -1.82340    1.63930    0.51440   -0.77770    0.43400   -0.66530  104.50000  108.72800  # c1,o3e,c1,hc
dihedral_coeff	26 at   -0.74660   -0.94480   -0.63210    0.01620    1.42110   -1.40920  108.52950  110.77000  # c_1,c1,c,hc
dihedral_coeff	27 at    0.00000    0.00000    0.00000    0.00000    0.00000    0.00000  113.28800  107.68800  # c_1,o_2,c,hc
dihedral_coeff	28 at   -0.80850    0.55690   -0.24660   -0.80850    0.55690   -0.24660  110.77000  110.77000  # hc,c,c,hc
dihedral_coeff	29 at   -0.80850    0.55690   -0.24660   -0.80850    0.55690   -0.24660  110.77000  110.77000  # hc,c,c1,hc
dihedral_coeff	30 at    2.36680    2.49200   -1.01220   -0.18920    0.49180    0.72730  110.77000  111.27000  # hc,c,c1,o3e
dihedral_coeff	31 at    0.00000    0.00000    0.00000    0.00000    0.00000    0.00000  110.77000  107.41000  # hc,c1,c,o_2
dihedral_coeff	32 at   -0.80850    0.55690   -0.24660   -0.80850    0.55690   -0.24660  110.77000  110.77000  # hc,c1,c1,hc
dihedral_coeff	33 at    2.36680    2.49200   -1.01220   -0.18920    0.49180    0.72730  110.77000  111.27000  # hc,c1,c1,o3e
dihedral_coeff	34 at   -1.49460    0.73080   -0.20830    9.12990   -0.48470    0.35820  107.73360  123.14510  # hc,c1,c_1,o_1
dihedral_coeff	35 at    0.00000    0.00000    0.00000    0.00000    0.00000    0.00000  107.73360  100.31820  # hc,c1,c_1,o_2

# AngleAngleTorsion Coeffs

dihedral_coeff	 1 aat  -22.04500  112.67000  112.67000  # c,c,c1,c
dihedral_coeff	 2 aat  -22.04500  112.67000  112.67000  # c,c,c1,c1
dihedral_coeff	 3 aat   -0.38010  112.67000  108.52950  # c,c,c1,c_1
dihedral_coeff	 4 aat  -16.16400  112.67000  110.77000  # c,c,c1,hc
dihedral_coeff	 5 aat  -29.04200  112.67000  111.27000  # c,c,c1,o3e
dihedral_coeff	 6 aat  -22.04500  112.67000  112.67000  # c,c1,c,c1
dihedral_coeff	 7 aat  -16.16400  112.67000  110.77000  # c,c1,c,hc
dihedral_coeff	 8 aat    0.00000  112.67000  107.41000  # c,c1,c,o_2
dihedral_coeff	 9 aat  -22.04500  112.67000  112.67000  # c,c1,c1,c
dihedral_coeff	10 aat  -16.16400  112.67000  110.77000  # c,c1,c1,hc
dihedral_coeff	11 aat  -29.04200  112.67000  111.27000  # c,c1,c1,o3e
dihedral_coeff	12 aat   -8.01900  108.52950  123.14510  # c,c1,c_1,o_1
dihedral_coeff	13 aat    0.00000  108.52950  100.31820  # c,c1,c_1,o_2
dihedral_coeff	14 aat  -19.00590  111.27000  104.50000  # c,c1,o3e,c1
dihedral_coeff	15 aat    0.00000  113.28800  100.31820  # c,o_2,c_1,c1
dihedral_coeff	16 aat    0.00000  113.28800  120.79700  # c,o_2,c_1,o_1
dihedral_coeff	17 aat  -22.04500  112.67000  112.67000  # c1,c,c,c1
dihedral_coeff	18 aat  -16.16400  112.67000  110.77000  # c1,c,c,hc
dihedral_coeff	19 aat  -22.04500  112.67000  112.67000  # c1,c,c1,c1
dihedral_coeff	20 aat   -0.38010  112.67000  108.52950  # c1,c,c1,c_1
dihedral_coeff	21 aat  -16.16400  112.67000  110.77000  # c1,c,c1,hc
dihedral_coeff	22 aat  -29.04200  112.67000  111.27000  # c1,c,c1,o3e
dihedral_coeff	23 aat    0.00000  107.41000  113.28800  # c1,c,o_2,c_1
dihedral_coeff	24 aat  -16.16400  112.67000  110.77000  # c1,c1,c,hc
dihedral_coeff	25 aat  -16.44380  104.50000  108.72800  # c1,o3e,c1,hc
dihedral_coeff	26 aat   -5.36240  108.52950  110.77000  # c_1,c1,c,hc
dihedral_coeff	27 aat    0.00000  113.28800  107.68800  # c_1,o_2,c,hc
dihedral_coeff	28 aat  -12.56400  110.77000  110.77000  # hc,c,c,hc
dihedral_coeff	29 aat  -12.56400  110.77000  110.77000  # hc,c,c1,hc
dihedral_coeff	30 aat  -20.20060  110.77000  111.27000  # hc,c,c1,o3e
dihedral_coeff	31 aat    0.00000  110.77000  107.41000  # hc,c1,c,o_2
dihedral_coeff	32 aat  -12.56400  110.77000  110.77000  # hc,c1,c1,hc
dihedral_coeff	33 aat  -20.20060  110.77000  111.27000  # hc,c1,c1,o3e
dihedral_coeff	34 aat  -15.34960  107.73360  123.14510  # hc,c1,c_1,o_1
dihedral_coeff	35 aat    0.00000  107.73360  100.31820  # hc,c1,c_1,o_2

# BondBond13 Coeffs

dihedral_coeff	 1 bb13    0.00000    1.53000    1.53000  # c,c,c1,c
dihedral_coeff	 2 bb13    0.00000    1.53000    1.53000  # c,c,c1,c1
dihedral_coeff	 3 bb13    0.00000    1.53000    1.52020  # c,c,c1,c_1
dihedral_coeff	 4 bb13    0.00000    1.53000    1.10100  # c,c,c1,hc
dihedral_coeff	 5 bb13    0.00000    1.53000    1.42000  # c,c,c1,o3e
dihedral_coeff	 6 bb13    0.00000    1.53000    1.53000  # c,c1,c,c1
dihedral_coeff	 7 bb13    0.00000    1.53000    1.10100  # c,c1,c,hc
dihedral_coeff	 8 bb13    0.00000    1.53000    1.43000  # c,c1,c,o_2
dihedral_coeff	 9 bb13    0.00000    1.53000    1.53000  # c,c1,c1,c
dihedral_coeff	10 bb13    0.00000    1.53000    1.10100  # c,c1,c1,hc
dihedral_coeff	11 bb13    0.00000    1.53000    1.42000  # c,c1,c1,o3e
dihedral_coeff	12 bb13    0.00000    1.53000    1.20200  # c,c1,c_1,o_1
dihedral_coeff	13 bb13    0.00000    1.53000    1.36830  # c,c1,c_1,o_2
dihedral_coeff	14 bb13    0.00000    1.53000    1.42000  # c,c1,o3e,c1
dihedral_coeff	15 bb13    0.00000    1.43000    1.52020  # c,o_2,c_1,c1
dihedral_coeff	16 bb13    0.00000    1.43000    1.20200  # c,o_2,c_1,o_1
dihedral_coeff	17 bb13    0.00000    1.53000    1.53000  # c1,c,c,c1
dihedral_coeff	18 bb13    0.00000    1.53000    1.10100  # c1,c,c,hc
dihedral_coeff	19 bb13    0.00000    1.53000    1.53000  # c1,c,c1,c1
dihedral_coeff	20 bb13    0.00000    1.53000    1.52020  # c1,c,c1,c_1
dihedral_coeff	21 bb13    0.00000    1.53000    1.10100  # c1,c,c1,hc
dihedral_coeff	22 bb13    0.00000    1.53000    1.42000  # c1,c,c1,o3e
dihedral_coeff	23 bb13    0.00000    1.53000    1.36830  # c1,c,o_2,c_1
dihedral_coeff	24 bb13    0.00000    1.53000    1.10100  # c1,c1,c,hc
dihedral_coeff	25 bb13    0.00000    1.42000    1.10100  # c1,o3e,c1,hc
dihedral_coeff	26 bb13    0.00000    1.52020    1.10100  # c_1,c1,c,hc
dihedral_coeff	27 bb13    0.00000    1.36830    1.10100  # c_1,o_2,c,hc
dihedral_coeff	28 bb13    0.00000    1.10100    1.10100  # hc,c,c,hc
dihedral_coeff	29 bb13    0.00000    1.10100    1.10100  # hc,c,c1,hc
dihedral_coeff	30 bb13    0.00000    1.10100    1.42000  # hc,c,c1,o3e
dihedral_coeff	31 bb13    0.00000    1.10100    1.43000  # hc,c1,c,o_2
dihedral_coeff	32 bb13    0.00000    1.10100    1.10100  # hc,c1,c1,hc
dihedral_coeff	33 bb13    0.00000    1.10100    1.42000  # hc,c1,c1,o3e
dihedral_coeff	34 bb13    0.00000    1.10100    1.20200  # hc,c1,c_1,o_1
dihedral_coeff	35 bb13    0.00000    1.10100    1.36830  # hc,c1,c_1,o_2

# Improper Coeffs

improper_coeff	 1    0.00000    0.00000  # c,c,c1,hc
improper_coeff	 2    0.00000    0.00000  # c,c,hc,c1
improper_coeff	 3    0.00000    0.00000  # c,c,hc,hc
improper_coeff	 4    0.00000    0.00000  # c,c1,c1,hc
improper_coeff	 5    0.00000    0.00000  # c,c1,hc,hc
improper_coeff	 6    0.00000    0.00000  # c,c1,hc,o_2
improper_coeff	 7    0.00000    0.00000  # c,hc,hc,o_2
improper_coeff	 8    0.00000    0.00000  # c1,c,c,c
improper_coeff	 9    0.00000    0.00000  # c1,c,c,c_1
improper_coeff	10    0.00000    0.00000  # c1,c,c,hc
improper_coeff	11    0.00000    0.00000  # c1,c,c1,hc
improper_coeff	12    0.00000    0.00000  # c1,c,c1,o3e
improper_coeff	13    0.00000    0.00000  # c1,c,hc,c1
improper_coeff	14    0.00000    0.00000  # c1,c,hc,c_1
improper_coeff	15    0.00000    0.00000  # c1,c,o3e,c1
improper_coeff	16    0.00000    0.00000  # c1,c,o3e,hc
improper_coeff	17    0.00000    0.00000  # c1,c1,o3e,hc
improper_coeff	18   46.92640    0.00000  # c_1,c1,o_2,o_1

# AngleAngle Coeffs

improper_coeff	 1 aa   -1.31990    0.00000    0.11840  112.67000  110.77000  110.77000  # c,c,c1,hc
improper_coeff	 2 aa    0.11840    0.00000   -1.31990  110.77000  112.67000  110.77000  # c,c,hc,c1
improper_coeff	 3 aa    0.27380   -0.48250    0.27380  110.77000  110.77000  107.66000  # c,c,hc,hc
improper_coeff	 4 aa    0.00000    0.00000    0.11840  112.67000  110.77000  110.77000  # c,c1,c1,hc
improper_coeff	 5 aa    0.00000   -0.48250    0.00000  110.77000  110.77000  107.66000  # c,c1,hc,hc
improper_coeff	 6 aa    0.00000    0.00000    0.00000  110.77000  107.41000  107.68800  # c,c1,hc,o_2
improper_coeff	 7 aa    0.00000    0.00000    0.00000  107.66000  107.68800  107.68800  # c,hc,hc,o_2
improper_coeff	 8 aa   -0.17290   -0.17290   -0.17290  112.67000  112.67000  112.67000  # c1,c,c,c
improper_coeff	 9 aa    0.00000    0.00000    0.00000  112.67000  108.52950  108.52950  # c1,c,c,c_1
improper_coeff	10 aa   -1.31990   -1.31990    0.11840  112.67000  110.77000  110.77000  # c1,c,c,hc
improper_coeff	11 aa   -1.31990    0.00000    0.11840  112.67000  110.77000  110.77000  # c1,c,c1,hc
improper_coeff	12 aa   -0.83300   -0.83300   -3.57440  112.67000  111.27000  111.27000  # c1,c,c1,o3e
improper_coeff	13 aa    0.11840    0.00000   -1.31990  110.77000  112.67000  110.77000  # c1,c,hc,c1
improper_coeff	14 aa    0.00000   -1.82020    2.04030  110.77000  108.52950  107.73360  # c1,c,hc,c_1
improper_coeff	15 aa   -3.57440   -0.83300   -0.83300  111.27000  112.67000  111.27000  # c1,c,o3e,c1
improper_coeff	16 aa    0.16890    2.59260    3.91770  111.27000  110.77000  108.72800  # c1,c,o3e,hc
improper_coeff	17 aa    0.00000    2.59260    3.91770  111.27000  110.77000  108.72800  # c1,c1,o3e,hc
improper_coeff	18 aa    0.00000    0.00000    0.00000  100.31820  123.14510  120.79700  # c_1,c1,o_2,o_1

# ------------------------------- OPT Section -------------------------------
minimize 1.0e-5 1.0e-7 100000 400000
PPPM initialization ...
  G vector (1/distance) = 0.21506545
  grid = 15 15 15
  stencil order = 5
  estimated absolute RMS force accuracy = 0.019221309
  estimated relative force accuracy = 5.7884401e-05
  3d grid and FFT values/proc = 2600 675
Generated 21 of 21 mixed pair_coeff terms from sixthpower/sixthpower mixing rule
  PPPM/cg optimization cutoff: 1e-05
  Total charged atoms: 100.0%
  Min/max charged atoms/proc: 100.0% 100.0%
Step          Temp          E_pair         E_mol          TotEng         Press
0   0              2211.4315      33129.654      35341.085      3566.9888
Loop time of 2.21104 on 6 procs for 128 steps with 5016 atoms

Minimization stats:
  Stopping criterion = energy tolerance
  Energy initial, next-to-last, final =
  Force two-norm initial, final = 2439.5454 93.560177
  Force max component initial, final = 110.03067 54.474001
  Final line search alpha, max atom move = 0.005968821 0.32514556
  Iterations, force evaluations = 128 254

# ------------------------------- Run Section -------------------------------
#

thermo_style custom step temp pe evdwl ecoul ebond eangle edihed eimp density vol
thermo          100

fix Langevin  all langevin 300 300 100.0 482432
fix moveLimit all nve/limit 0.1
run 10000
PPPM initialization ...
  G vector (1/distance) = 0.21506545
  grid = 15 15 15
  stencil order = 5
  estimated absolute RMS force accuracy = 0.019221309
  estimated relative force accuracy = 5.7884401e-05
  3d grid and FFT values/proc = 2600 675
Generated 21 of 21 mixed pair_coeff terms from sixthpower/sixthpower mixing rule
Step          Temp          PotEng         E_vdwl         E_coul         E_bond        E_angle        E_dihed        E_impro        Density         Volume
128   0              29204.2       -142.80525      7490.4918      543.7207       30846.419     -2915.48       -86.645219      0.44999999     122899.55
Averages over the last 51 of 102 rows, steps 5200 to 10128:
Temp PotEng E_vdwl E_coul E_bond E_angle E_dihed E_impro Density Volume
300.197 32232.7 -124.405 7348.36 2308.39 32617.2 -3307.83 -46.9924 0.45 122900
Loop time of 78.2359 on 6 procs for 10000 steps with 5016 atoms

unfix Langevin
unfix moveLimit

fix 		relax all npt temp 300.0 300.0 100 iso 1.0 1.0 1000
run 100000
PPPM initialization ...
  G vector (1/distance) = 0.21506545
  grid = 15 15 15
  stencil order = 5
  estimated absolute RMS force accuracy = 0.019221309
  estimated relative force accuracy = 5.7884401e-05
  3d grid and FFT values/proc = 2600 675
Generated 21 of 21 mixed pair_coeff terms from sixthpower/sixthpower mixing rule
Step          Temp          PotEng         E_vdwl         E_coul         E_bond        E_angle        E_dihed        E_impro        Density         Volume
10128   295.44429      32116.044     -140.55531      7336.3576      2271.4749      32601.683     -3334.8216     -57.80967       0.44999999     122899.55
Averages over the last 501 of 1002 rows, steps 60200 to 110128:
Temp PotEng E_vdwl E_coul E_bond E_angle E_dihed E_impro Density Volume
299.694 30289.6 -1807.28 7248.29 2245.41 32610.5 -3383.83 -45.1546 1.0788 51266.5
Loop time of 1088.82 on 6 procs for 100000 steps with 5016 atoms

unfix relax
