LAMMPS (22 Dec 2022)
# PREREQUISITES:
#
#     You must use moltemplate.sh to create 3 files:
#        system.data  system.in.init  system.in.settings
#     (Follow the instructions in README_setup.sh,
#      or run the file as a script using ./README_setup.sh)

# ------------------------------- Initialization Section --------------------

units real
atom_style full
pair_style lj/class2/coul/long 10.0 10.0
bond_style class2
angle_style class2
dihedral_style class2
improper_style class2
kspace_style pppm/cg 0.001

pair_modify     mix sixthpower tail yes
special_bonds   lj/coul 0 0 1

# ------------------------------- Atom Definition Section -------------------

read_data       "reacted_lmp.data"
Reading data file ...
  orthogonal box = (5.1901177 5.1901177 5.1901177) to (43.100212 43.100212 43.100212)
  reading atoms ...
  5010 atoms
  reading velocities ...
  5010 velocities
  scanning bonds ...
  scanning angles ...
  scanning dihedrals ...
  scanning impropers ...
  reading bonds ...
  5242 bonds
  reading angles ...
  10472 angles
  reading dihedrals ...
  15498 dihedrals
  reading impropers ...
  6664 impropers
Finding 1-2 1-3 1-4 neighbors ...
     4 = max # of 1-2 neighbors
     9 = max # of 1-3 neighbors
    13 = max # of special neighbors

include calc.pram

# Masses

mass		1    12.01115  # c
mass		2    12.01115  # c1
mass		3    12.01115  # c3h
mass		4     1.00797  # h
mass		5     1.00797  # hc
mass		6    15.99940  # o3e
mass		7    15.99940  # oc
mass		8    15.99940  # oh

# Potentials

pair_coeff	 1  1    0.05400    4.01000  # c,c
pair_coeff	 2  2    0.05400    4.01000  # c1,c1
pair_coeff	 3  3    0.05400    4.01000  # c3h,c3h
pair_coeff	 4  4    0.02000    2.99500  # h,h
pair_coeff	 5  5    0.02000    2.99500  # hc,hc
pair_coeff	 6  6    0.24000    3.53500  # o3e,o3e
pair_coeff	 7  7    0.24000    3.53500  # oc,oc
pair_coeff	 8  8    0.24000    3.53500  # oh,oh

# Bond Coeffs

bond_coeff	 1    1.53000  299.67000 -501.77000  679.81000  # c,c
bond_coeff	 2    1.53000  299.67000 -501.77000  679.81000  # c,c1
bond_coeff	 3    1.53000  299.67000 -501.77000  679.81000  # c,c3h
bond_coeff	 4    1.10100  345.00000 -691.89000  844.60000  # c,hc
bond_coeff	 5    1.42000  400.39540 -835.19510 1313.01420  # c,o3e
bond_coeff	 6    1.42000  400.39540 -835.19510 1313.01420  # c,oc
bond_coeff	 7    1.42000  400.39540 -835.19510 1313.01420  # c,oh
bond_coeff	 8    1.10100  345.00000 -691.89000  844.60000  # c1,hc
bond_coeff	 9    1.42000  400.39540 -835.19510 1313.01420  # c1,oc
bond_coeff	10    1.10100  345.00000 -691.89000  844.60000  # c3h,hc
bond_coeff	11    1.42000  400.39540 -835.19510 1313.01420  # c3h,o3e
bond_coeff	12    0.96000  493.84800    0.00000    0.00000  # h,oh

# Angle Coeffs

angle_coeff	 1  112.67000   39.51600   -7.44300   -9.55830  # c,c,c
angle_coeff	 2  112.67000   39.51600   -7.44300   -9.55830  # c,c,c1
angle_coeff	 3  110.77000   41.45300  -10.60400    5.12900  # c,c,hc
angle_coeff	 4  111.27000   54.53810   -8.36420  -13.08380  # c,c,oc
angle_coeff	 5  112.67000   39.51600   -7.44300   -9.55830  # c,c1,c
angle_coeff	 6  110.77000   41.45300  -10.60400    5.12900  # c,c1,hc
angle_coeff	 7  111.27000   54.53810   -8.36420  -13.08380  # c,c1,oc
angle_coeff	 8  112.67000   39.51600   -7.44300   -9.55830  # c,c3h,c
angle_coeff	 9  110.77000   41.45300  -10.60400    5.12900  # c,c3h,hc
angle_coeff	10  111.27000   54.53810   -8.36420  -13.08380  # c,c3h,o3e
angle_coeff	11  104.50000   35.74540  -10.00670   -6.27290  # c,o3e,c3h
angle_coeff	12  104.50000   35.74540  -10.00670   -6.27290  # c,oc,c
angle_coeff	13  104.50000   35.74540  -10.00670   -6.27290  # c,oc,c1
angle_coeff	14  109.00000   58.50000    0.00000    0.00000  # c,oh,h
angle_coeff	15  110.77000   41.45300  -10.60400    5.12900  # c1,c,hc
angle_coeff	16  111.27000   54.53810   -8.36420  -13.08380  # c1,c,oc
angle_coeff	17  111.27000   54.53810   -8.36420  -13.08380  # c1,c,oh
angle_coeff	18  110.77000   41.45300  -10.60400    5.12900  # c3h,c,hc
angle_coeff	19  111.27000   54.53810   -8.36420  -13.08380  # c3h,c,o3e
angle_coeff	20  111.27000   54.53810   -8.36420  -13.08380  # c3h,c,oc
angle_coeff	21  107.66000   39.64100  -12.92100   -2.43180  # hc,c,hc
angle_coeff	22  108.72800   58.54460  -10.80880  -12.40060  # hc,c,o3e
angle_coeff	23  108.72800   58.54460  -10.80880  -12.40060  # hc,c,oc
angle_coeff	24  108.72800   58.54460  -10.80880  -12.40060  # hc,c,oh
angle_coeff	25  108.72800   58.54460  -10.80880  -12.40060  # hc,c1,oc
angle_coeff	26  108.72800   58.54460  -10.80880  -12.40060  # hc,c3h,o3e

# BondBond Coeffs

angle_coeff	 1 bb    0.00000    1.53000    1.53000  # c,c,c
angle_coeff	 2 bb    0.00000    1.53000    1.53000  # c,c,c1
angle_coeff	 3 bb    3.38720    1.53000    1.10100  # c,c,hc
angle_coeff	 4 bb   11.43180    1.53000    1.42000  # c,c,oc
angle_coeff	 5 bb    0.00000    1.53000    1.53000  # c,c1,c
angle_coeff	 6 bb    3.38720    1.53000    1.10100  # c,c1,hc
angle_coeff	 7 bb   11.43180    1.53000    1.42000  # c,c1,oc
angle_coeff	 8 bb    0.00000    1.53000    1.53000  # c,c3h,c
angle_coeff	 9 bb    3.38720    1.53000    1.10100  # c,c3h,hc
angle_coeff	10 bb   11.43180    1.53000    1.42000  # c,c3h,o3e
angle_coeff	11 bb   -7.11310    1.42000    1.42000  # c,o3e,c3h
angle_coeff	12 bb   -7.11310    1.42000    1.42000  # c,oc,c
angle_coeff	13 bb   -7.11310    1.42000    1.42000  # c,oc,c1
angle_coeff	14 bb    0.00000    1.42000    0.96000  # c,oh,h
angle_coeff	15 bb    3.38720    1.53000    1.10100  # c1,c,hc
angle_coeff	16 bb   11.43180    1.53000    1.42000  # c1,c,oc
angle_coeff	17 bb   11.43180    1.53000    1.42000  # c1,c,oh
angle_coeff	18 bb    3.38720    1.53000    1.10100  # c3h,c,hc
angle_coeff	19 bb   11.43180    1.53000    1.42000  # c3h,c,o3e
angle_coeff	20 bb   11.43180    1.53000    1.42000  # c3h,c,oc
angle_coeff	21 bb    5.33160    1.10100    1.10100  # hc,c,hc
angle_coeff	22 bb   23.19790    1.10100    1.42000  # hc,c,o3e
angle_coeff	23 bb   23.19790    1.10100    1.42000  # hc,c,oc
angle_coeff	24 bb   23.19790    1.10100    1.42000  # hc,c,oh
angle_coeff	25 bb   23.19790    1.10100    1.42000  # hc,c1,oc
angle_coeff	26 bb   23.19790    1.10100    1.42000  # hc,c3h,o3e

# BondAngle Coeffs

angle_coeff	 1 ba    8.01600    8.01600    1.53000    1.53000  # c,c,c
angle_coeff	 2 ba    8.01600    8.01600    1.53000    1.53000  # c,c,c1
angle_coeff	 3 ba   11.42100   20.75400    1.53000    1.10100  # c,c,hc
angle_coeff	 4 ba    2.68680   20.40330    1.53000    1.42000  # c,c,oc
angle_coeff	 5 ba    8.01600    8.01600    1.53000    1.53000  # c,c1,c
angle_coeff	 6 ba   11.42100   20.75400    1.53000    1.10100  # c,c1,hc
angle_coeff	 7 ba    2.68680   20.40330    1.53000    1.42000  # c,c1,oc
angle_coeff	 8 ba    8.01600    8.01600    1.53000    1.53000  # c,c3h,c
angle_coeff	 9 ba   11.42100   20.75400    1.53000    1.10100  # c,c3h,hc
angle_coeff	10 ba    2.68680   20.40330    1.53000    1.42000  # c,c3h,o3e
angle_coeff	11 ba   -2.81120   -2.81120    1.42000    1.42000  # c,o3e,c3h
angle_coeff	12 ba   -2.81120   -2.81120    1.42000    1.42000  # c,oc,c
angle_coeff	13 ba   -2.81120   -2.81120    1.42000    1.42000  # c,oc,c1
angle_coeff	14 ba    0.00000    0.00000    1.42000    0.96000  # c,oh,h
angle_coeff	15 ba   20.75400   11.42100    1.53000    1.10100  # c1,c,hc
angle_coeff	16 ba    2.68680   20.40330    1.53000    1.42000  # c1,c,oc
angle_coeff	17 ba    2.68680   20.40330    1.53000    1.42000  # c1,c,oh
angle_coeff	18 ba   11.42100   20.75400    1.53000    1.10100  # c3h,c,hc
angle_coeff	19 ba    2.68680   20.40330    1.53000    1.42000  # c3h,c,o3e
angle_coeff	20 ba   20.40330    2.68680    1.53000    1.42000  # c3h,c,oc
angle_coeff	21 ba   18.10300   18.10300    1.10100    1.10100  # hc,c,hc
angle_coeff	22 ba    4.61890   55.32700    1.10100    1.42000  # hc,c,o3e
angle_coeff	23 ba    4.61890   55.32700    1.10100    1.42000  # hc,c,oc
angle_coeff	24 ba    4.61890   55.32700    1.10100    1.42000  # hc,c,oh
angle_coeff	25 ba    4.61890   55.32700    1.10100    1.42000  # hc,c1,oc
angle_coeff	26 ba    4.61890   55.32700    1.10100    1.42000  # hc,c3h,o3e

# Dihedral Coeffs

dihedral_coeff	 1    0.00000    0.00000    0.03160    0.00000   -0.16810    0.00000  # c,c,c,hc
dihedral_coeff	 2    0.71370    0.00000    0.26600    0.00000   -0.25450    0.00000  # c,c,c,oc
dihedral_coeff	 3    0.00000    0.00000    0.05140    0.00000   -0.14300    0.00000  # c,c,c1,c
dihedral_coeff	 4    0.00000    0.00000    0.03160    0.00000   -0.16810    0.00000  # c,c,c1,hc
dihedral_coeff	 5   -0.52030    0.00000   -0.30280    0.00000   -0.34500    0.00000  # c,c,oc,c
dihedral_coeff	 6   -0.52030    0.00000   -0.30280    0.00000   -0.34500    0.00000  # c,c,oc,c1
dihedral_coeff	 7    0.00000    0.00000    0.03160    0.00000   -0.16810    0.00000  # c,c1,c,hc
dihedral_coeff	 8    0.71370    0.00000    0.26600    0.00000   -0.25450    0.00000  # c,c1,c,oc
dihedral_coeff	 9    0.71370    0.00000    0.26600    0.00000   -0.25450    0.00000  # c,c1,c,oh
dihedral_coeff	10   -0.52030    0.00000   -0.30280    0.00000   -0.34500    0.00000  # c,c1,oc,c
dihedral_coeff	11    0.00000    0.00000    0.03160    0.00000   -0.16810    0.00000  # c,c3h,c,hc
dihedral_coeff	12    0.71370    0.00000    0.26600    0.00000   -0.25450    0.00000  # c,c3h,c,o3e
dihedral_coeff	13    0.71370    0.00000    0.26600    0.00000   -0.25450    0.00000  # c,c3h,c,oc
dihedral_coeff	14   -0.52030    0.00000   -0.30280    0.00000   -0.34500    0.00000  # c,c3h,o3e,c
dihedral_coeff	15    0.53020    0.00000    0.00000    0.00000   -0.39660    0.00000  # c,o3e,c3h,hc
dihedral_coeff	16   -0.52030    0.00000   -0.30280    0.00000   -0.34500    0.00000  # c,oc,c,c1
dihedral_coeff	17   -0.52030    0.00000   -0.30280    0.00000   -0.34500    0.00000  # c,oc,c,c3h
dihedral_coeff	18    0.53020    0.00000    0.00000    0.00000   -0.39660    0.00000  # c,oc,c,hc
dihedral_coeff	19    0.53020    0.00000    0.00000    0.00000   -0.39660    0.00000  # c,oc,c1,hc
dihedral_coeff	20    0.00000    0.00000    0.05140    0.00000   -0.14300    0.00000  # c1,c,c,c1
dihedral_coeff	21    0.00000    0.00000    0.03160    0.00000   -0.16810    0.00000  # c1,c,c,hc
dihedral_coeff	22   -0.52030    0.00000   -0.30280    0.00000   -0.34500    0.00000  # c1,c,oc,c1
dihedral_coeff	23    0.00000    0.00000    0.00000    0.00000    0.13000  180.00000  # c1,c,oh,h
dihedral_coeff	24    0.53020    0.00000    0.00000    0.00000   -0.39660    0.00000  # c1,oc,c,hc
dihedral_coeff	25    0.53020    0.00000    0.00000    0.00000   -0.39660    0.00000  # c3h,o3e,c,hc
dihedral_coeff	26    0.00000    0.00000    0.00000    0.00000    0.13000  180.00000  # h,oh,c,hc
dihedral_coeff	27   -0.14320    0.00000    0.06170    0.00000   -0.10830    0.00000  # hc,c,c,hc
dihedral_coeff	28   -0.14350    0.00000    0.25300    0.00000   -0.09050    0.00000  # hc,c,c,oc
dihedral_coeff	29   -0.14320    0.00000    0.06170    0.00000   -0.10830    0.00000  # hc,c,c1,hc
dihedral_coeff	30   -0.14350    0.00000    0.25300    0.00000   -0.09050    0.00000  # hc,c,c1,oc
dihedral_coeff	31   -0.14320    0.00000    0.06170    0.00000   -0.10830    0.00000  # hc,c,c3h,hc
dihedral_coeff	32   -0.14350    0.00000    0.25300    0.00000   -0.09050    0.00000  # hc,c,c3h,o3e
dihedral_coeff	33   -0.14350    0.00000    0.25300    0.00000   -0.09050    0.00000  # hc,c1,c,oc
dihedral_coeff	34   -0.14350    0.00000    0.25300    0.00000   -0.09050    0.00000  # hc,c1,c,oh
dihedral_coeff	35   -0.14350    0.00000    0.25300    0.00000   -0.09050    0.00000  # hc,c3h,c,o3e
dihedral_coeff	36   -0.14350    0.00000    0.25300    0.00000   -0.09050    0.00000  # hc,c3h,c,oc
dihedral_coeff	37   -0.18200    0.00000   -0.10840    0.00000   -0.70470    0.00000  # o3e,c3h,c,oc
dihedral_coeff	38   -0.18200    0.00000   -0.10840    0.00000   -0.70470    0.00000  # oc,c,c1,oc
dihedral_coeff	39   -0.18200    0.00000   -0.10840    0.00000   -0.70470    0.00000  # oc,c1,c,oh

# MiddleBondTorsion Coeffs

dihedral_coeff	 1 mbt  -14.87900   -3.65810   -0.31380    1.53000  # c,c,c,hc
dihedral_coeff	 2 mbt  -21.88420   -7.67640   -0.68680    1.53000  # c,c,c,oc
dihedral_coeff	 3 mbt  -17.78700   -7.18770    0.00000    1.53000  # c,c,c1,c
dihedral_coeff	 4 mbt  -14.87900   -3.65810   -0.31380    1.53000  # c,c,c1,hc
dihedral_coeff	 5 mbt   -5.92880   -2.70070   -0.31750    1.42000  # c,c,oc,c
dihedral_coeff	 6 mbt   -5.92880   -2.70070   -0.31750    1.42000  # c,c,oc,c1
dihedral_coeff	 7 mbt  -14.87900   -3.65810   -0.31380    1.53000  # c,c1,c,hc
dihedral_coeff	 8 mbt  -21.88420   -7.67640   -0.68680    1.53000  # c,c1,c,oc
dihedral_coeff	 9 mbt  -21.88420   -7.67640   -0.68680    1.53000  # c,c1,c,oh
dihedral_coeff	10 mbt   -5.92880   -2.70070   -0.31750    1.42000  # c,c1,oc,c
dihedral_coeff	11 mbt  -14.87900   -3.65810   -0.31380    1.53000  # c,c3h,c,hc
dihedral_coeff	12 mbt  -21.88420   -7.67640   -0.68680    1.53000  # c,c3h,c,o3e
dihedral_coeff	13 mbt  -21.88420   -7.67640   -0.68680    1.53000  # c,c3h,c,oc
dihedral_coeff	14 mbt   -5.92880   -2.70070   -0.31750    1.42000  # c,c3h,o3e,c
dihedral_coeff	15 mbt   -6.80070   -4.65460   -1.41010    1.42000  # c,o3e,c3h,hc
dihedral_coeff	16 mbt   -5.92880   -2.70070   -0.31750    1.42000  # c,oc,c,c1
dihedral_coeff	17 mbt   -5.92880   -2.70070   -0.31750    1.42000  # c,oc,c,c3h
dihedral_coeff	18 mbt   -6.80070   -4.65460   -1.41010    1.42000  # c,oc,c,hc
dihedral_coeff	19 mbt   -6.80070   -4.65460   -1.41010    1.42000  # c,oc,c1,hc
dihedral_coeff	20 mbt  -17.78700   -7.18770    0.00000    1.53000  # c1,c,c,c1
dihedral_coeff	21 mbt  -14.87900   -3.65810   -0.31380    1.53000  # c1,c,c,hc
dihedral_coeff	22 mbt   -5.92880   -2.70070   -0.31750    1.42000  # c1,c,oc,c1
dihedral_coeff	23 mbt    0.00000    0.00000    0.00000    1.42000  # c1,c,oh,h
dihedral_coeff	24 mbt   -6.80070   -4.65460   -1.41010    1.42000  # c1,oc,c,hc
dihedral_coeff	25 mbt   -6.80070   -4.65460   -1.41010    1.42000  # c3h,o3e,c,hc
dihedral_coeff	26 mbt    0.00000    0.00000    0.00000    1.42000  # h,oh,c,hc
dihedral_coeff	27 mbt  -14.26100   -0.53220   -0.48640    1.53000  # hc,c,c,hc
dihedral_coeff	28 mbt  -16.79750   -1.22960   -0.27500    1.53000  # hc,c,c,oc
dihedral_coeff	29 mbt  -14.26100   -0.53220   -0.48640    1.53000  # hc,c,c1,hc
dihedral_coeff	30 mbt  -16.79750   -1.22960   -0.27500    1.53000  # hc,c,c1,oc
dihedral_coeff	31 mbt  -14.26100   -0.53220   -0.48640    1.53000  # hc,c,c3h,hc
dihedral_coeff	32 mbt  -16.79750   -1.22960   -0.27500    1.53000  # hc,c,c3h,o3e
dihedral_coeff	33 mbt  -16.79750   -1.22960   -0.27500    1.53000  # hc,c1,c,oc
dihedral_coeff	34 mbt  -16.79750   -1.22960   -0.27500    1.53000  # hc,c1,c,oh
dihedral_coeff	35 mbt  -16.79750   -1.22960   -0.27500    1.53000  # hc,c3h,c,o3e
dihedral_coeff	36 mbt  -16.79750   -1.22960   -0.27500    1.53000  # hc,c3h,c,oc
dihedral_coeff	37 mbt  -17.25850   -3.61570   -0.83640    1.53000  # o3e,c3h,c,oc
dihedral_coeff	38 mbt  -17.25850   -3.61570   -0.83640    1.53000  # oc,c,c1,oc
dihedral_coeff	39 mbt  -17.25850   -3.61570   -0.83640    1.53000  # oc,c1,c,oh

# EndBondTorsion Coeffs

dihedral_coeff	 1 ebt    0.08140    0.05910    0.22190    0.24860    0.24220   -0.09250    1.53000    1.10100  # c,c,c,hc
dihedral_coeff	 2 ebt   -0.31900    0.44110   -0.71740    1.15380    0.84090   -0.91380    1.53000    1.42000  # c,c,c,oc
dihedral_coeff	 3 ebt   -0.07320    0.00000    0.00000   -0.07320    0.00000    0.00000    1.53000    1.53000  # c,c,c1,c
dihedral_coeff	 4 ebt    0.08140    0.05910    0.22190    0.24860    0.24220   -0.09250    1.53000    1.10100  # c,c,c1,hc
dihedral_coeff	 5 ebt   -0.24560    1.05170   -0.77950    0.47410    1.26350    0.55760    1.53000    1.42000  # c,c,oc,c
dihedral_coeff	 6 ebt    0.47410    1.26350    0.55760   -0.24560    1.05170   -0.77950    1.53000    1.42000  # c,c,oc,c1
dihedral_coeff	 7 ebt    0.08140    0.05910    0.22190    0.24860    0.24220   -0.09250    1.53000    1.10100  # c,c1,c,hc
dihedral_coeff	 8 ebt   -0.31900    0.44110   -0.71740    1.15380    0.84090   -0.91380    1.53000    1.42000  # c,c1,c,oc
dihedral_coeff	 9 ebt   -0.31900    0.44110   -0.71740    1.15380    0.84090   -0.91380    1.53000    1.42000  # c,c1,c,oh
dihedral_coeff	10 ebt   -0.24560    1.05170   -0.77950    0.47410    1.26350    0.55760    1.53000    1.42000  # c,c1,oc,c
dihedral_coeff	11 ebt    0.08140    0.05910    0.22190    0.24860    0.24220   -0.09250    1.53000    1.10100  # c,c3h,c,hc
dihedral_coeff	12 ebt   -0.31900    0.44110   -0.71740    1.15380    0.84090   -0.91380    1.53000    1.42000  # c,c3h,c,o3e
dihedral_coeff	13 ebt   -0.31900    0.44110   -0.71740    1.15380    0.84090   -0.91380    1.53000    1.42000  # c,c3h,c,oc
dihedral_coeff	14 ebt   -0.24560    1.05170   -0.77950    0.47410    1.26350    0.55760    1.53000    1.42000  # c,c3h,o3e,c
dihedral_coeff	15 ebt   -0.60540    1.33390    0.96480   -0.16200    0.15640   -1.14080    1.42000    1.10100  # c,o3e,c3h,hc
dihedral_coeff	16 ebt   -0.24560    1.05170   -0.77950    0.47410    1.26350    0.55760    1.42000    1.53000  # c,oc,c,c1
dihedral_coeff	17 ebt    0.47410    1.26350    0.55760   -0.24560    1.05170   -0.77950    1.42000    1.53000  # c,oc,c,c3h
dihedral_coeff	18 ebt   -0.60540    1.33390    0.96480   -0.16200    0.15640   -1.14080    1.42000    1.10100  # c,oc,c,hc
dihedral_coeff	19 ebt   -0.60540    1.33390    0.96480   -0.16200    0.15640   -1.14080    1.42000    1.10100  # c,oc,c1,hc
dihedral_coeff	20 ebt   -0.07320    0.00000    0.00000   -0.07320    0.00000    0.00000    1.53000    1.53000  # c1,c,c,c1
dihedral_coeff	21 ebt    0.24860    0.24220   -0.09250    0.08140    0.05910    0.22190    1.53000    1.10100  # c1,c,c,hc
dihedral_coeff	22 ebt   -0.24560    1.05170   -0.77950    0.47410    1.26350    0.55760    1.53000    1.42000  # c1,c,oc,c1
dihedral_coeff	23 ebt    0.00000    0.00000    0.00000    0.00000    0.00000    0.00000    1.53000    0.96000  # c1,c,oh,h
dihedral_coeff	24 ebt   -0.16200    0.15640   -1.14080   -0.60540    1.33390    0.96480    1.42000    1.10100  # c1,oc,c,hc
dihedral_coeff	25 ebt   -0.60540    1.33390    0.96480   -0.16200    0.15640   -1.14080    1.42000    1.10100  # c3h,o3e,c,hc
dihedral_coeff	26 ebt    0.00000    0.00000    0.00000    0.00000    0.00000    0.00000    0.96000    1.10100  # h,oh,c,hc
dihedral_coeff	27 ebt    0.21300    0.31200    0.07770    0.21300    0.31200    0.07770    1.10100    1.10100  # hc,c,c,hc
dihedral_coeff	28 ebt    0.96810    0.95510    0.04360    0.59030    0.66690    0.85840    1.10100    1.42000  # hc,c,c,oc
dihedral_coeff	29 ebt    0.21300    0.31200    0.07770    0.21300    0.31200    0.07770    1.10100    1.10100  # hc,c,c1,hc
dihedral_coeff	30 ebt    0.96810    0.95510    0.04360    0.59030    0.66690    0.85840    1.10100    1.42000  # hc,c,c1,oc
dihedral_coeff	31 ebt    0.21300    0.31200    0.07770    0.21300    0.31200    0.07770    1.10100    1.10100  # hc,c,c3h,hc
dihedral_coeff	32 ebt    0.96810    0.95510    0.04360    0.59030    0.66690    0.85840    1.10100    1.42000  # hc,c,c3h,o3e
dihedral_coeff	33 ebt    0.96810    0.95510    0.04360    0.59030    0.66690    0.85840    1.10100    1.42000  # hc,c1,c,oc
dihedral_coeff	34 ebt    0.96810    0.95510    0.04360    0.59030    0.66690    0.85840    1.10100    1.42000  # hc,c1,c,oh
dihedral_coeff	35 ebt    0.96810    0.95510    0.04360    0.59030    0.66690    0.85840    1.10100    1.42000  # hc,c3h,c,o3e
dihedral_coeff	36 ebt    0.96810    0.95510    0.04360    0.59030    0.66690    0.85840    1.10100    1.42000  # hc,c3h,c,oc
dihedral_coeff	37 ebt    1.01650    0.75530   -0.46090    1.01650    0.75530   -0.46090    1.42000    1.42000  # o3e,c3h,c,oc
dihedral_coeff	38 ebt    1.01650    0.75530   -0.46090    1.01650    0.75530   -0.46090    1.42000    1.42000  # oc,c,c1,oc
dihedral_coeff	39 ebt    1.01650    0.75530   -0.46090    1.01650    0.75530   -0.46090    1.42000    1.42000  # oc,c1,c,oh

# AngleTorsion Coeffs

dihedral_coeff	 1 at    0.31130    0.45160   -0.19880   -0.24540    0.00000   -0.11360  112.67000  110.77000  # c,c,c,hc
dihedral_coeff	 2 at    0.56230   -0.30410   -0.40150    0.96720   -0.75660   -1.23310  112.67000  111.27000  # c,c,c,oc
dihedral_coeff	 3 at    0.38860   -0.31390    0.13890    0.38860   -0.31390    0.13890  112.67000  112.67000  # c,c,c1,c
dihedral_coeff	 4 at    0.31130    0.45160   -0.19880   -0.24540    0.00000   -0.11360  112.67000  110.77000  # c,c,c1,hc
dihedral_coeff	 5 at   -2.74660    1.48770   -0.89550    0.56760    0.94500    0.07030  111.27000  104.50000  # c,c,oc,c
dihedral_coeff	 6 at    0.56760    0.94500    0.07030   -2.74660    1.48770   -0.89550  111.27000  104.50000  # c,c,oc,c1
dihedral_coeff	 7 at    0.31130    0.45160   -0.19880   -0.24540    0.00000   -0.11360  112.67000  110.77000  # c,c1,c,hc
dihedral_coeff	 8 at    0.56230   -0.30410   -0.40150    0.96720   -0.75660   -1.23310  112.67000  111.27000  # c,c1,c,oc
dihedral_coeff	 9 at    0.56230   -0.30410   -0.40150    0.96720   -0.75660   -1.23310  112.67000  111.27000  # c,c1,c,oh
dihedral_coeff	10 at   -2.74660    1.48770   -0.89550    0.56760    0.94500    0.07030  111.27000  104.50000  # c,c1,oc,c
dihedral_coeff	11 at    0.31130    0.45160   -0.19880   -0.24540    0.00000   -0.11360  112.67000  110.77000  # c,c3h,c,hc
dihedral_coeff	12 at    0.56230   -0.30410   -0.40150    0.96720   -0.75660   -1.23310  112.67000  111.27000  # c,c3h,c,o3e
dihedral_coeff	13 at    0.56230   -0.30410   -0.40150    0.96720   -0.75660   -1.23310  112.67000  111.27000  # c,c3h,c,oc
dihedral_coeff	14 at   -2.74660    1.48770   -0.89550    0.56760    0.94500    0.07030  111.27000  104.50000  # c,c3h,o3e,c
dihedral_coeff	15 at   -1.82340    1.63930    0.51440   -0.77770    0.43400   -0.66530  104.50000  108.72800  # c,o3e,c3h,hc
dihedral_coeff	16 at   -2.74660    1.48770   -0.89550    0.56760    0.94500    0.07030  104.50000  111.27000  # c,oc,c,c1
dihedral_coeff	17 at    0.56760    0.94500    0.07030   -2.74660    1.48770   -0.89550  104.50000  111.27000  # c,oc,c,c3h
dihedral_coeff	18 at   -1.82340    1.63930    0.51440   -0.77770    0.43400   -0.66530  104.50000  108.72800  # c,oc,c,hc
dihedral_coeff	19 at   -1.82340    1.63930    0.51440   -0.77770    0.43400   -0.66530  104.50000  108.72800  # c,oc,c1,hc
dihedral_coeff	20 at    0.38860   -0.31390    0.13890    0.38860   -0.31390    0.13890  112.67000  112.67000  # c1,c,c,c1
dihedral_coeff	21 at   -0.24540    0.00000   -0.11360    0.31130    0.45160   -0.19880  112.67000  110.77000  # c1,c,c,hc
dihedral_coeff	22 at   -2.74660    1.48770   -0.89550    0.56760    0.94500    0.07030  111.27000  104.50000  # c1,c,oc,c1
dihedral_coeff	23 at    0.00000    0.00000    0.00000    0.00000    0.00000    0.00000  111.27000  109.00000  # c1,c,oh,h
dihedral_coeff	24 at   -0.77770    0.43400   -0.66530   -1.82340    1.63930    0.51440  104.50000  108.72800  # c1,oc,c,hc
dihedral_coeff	25 at   -1.82340    1.63930    0.51440   -0.77770    0.43400   -0.66530  104.50000  108.72800  # c3h,o3e,c,hc
dihedral_coeff	26 at    0.00000    0.00000    0.00000    0.00000    0.00000    0.00000  109.00000  108.72800  # h,oh,c,hc
dihedral_coeff	27 at   -0.80850    0.55690   -0.24660   -0.80850    0.55690   -0.24660  110.77000  110.77000  # hc,c,c,hc
dihedral_coeff	28 at    2.36680    2.49200   -1.01220   -0.18920    0.49180    0.72730  110.77000  111.27000  # hc,c,c,oc
dihedral_coeff	29 at   -0.80850    0.55690   -0.24660   -0.80850    0.55690   -0.24660  110.77000  110.77000  # hc,c,c1,hc
dihedral_coeff	30 at    2.36680    2.49200   -1.01220   -0.18920    0.49180    0.72730  110.77000  111.27000  # hc,c,c1,oc
dihedral_coeff	31 at   -0.80850    0.55690   -0.24660   -0.80850    0.55690   -0.24660  110.77000  110.77000  # hc,c,c3h,hc
dihedral_coeff	32 at    2.36680    2.49200   -1.01220   -0.18920    0.49180    0.72730  110.77000  111.27000  # hc,c,c3h,o3e
dihedral_coeff	33 at    2.36680    2.49200   -1.01220   -0.18920    0.49180    0.72730  110.77000  111.27000  # hc,c1,c,oc
dihedral_coeff	34 at    2.36680    2.49200   -1.01220   -0.18920    0.49180    0.72730  110.77000  111.27000  # hc,c1,c,oh
dihedral_coeff	35 at    2.36680    2.49200   -1.01220   -0.18920    0.49180    0.72730  110.77000  111.27000  # hc,c3h,c,o3e
dihedral_coeff	36 at    2.36680    2.49200   -1.01220   -0.18920    0.49180    0.72730  110.77000  111.27000  # hc,c3h,c,oc
dihedral_coeff	37 at    0.55110    0.97370   -0.66730    0.55110    0.97370   -0.66730  111.27000  111.27000  # o3e,c3h,c,oc
dihedral_coeff	38 at    0.55110    0.97370   -0.66730    0.55110    0.97370   -0.66730  111.27000  111.27000  # oc,c,c1,oc
dihedral_coeff	39 at    0.55110    0.97370   -0.66730    0.55110    0.97370   -0.66730  111.27000  111.27000  # oc,c1,c,oh

# AngleAngleTorsion Coeffs

dihedral_coeff	 1 aat  -16.16400  112.67000  110.77000  # c,c,c,hc
dihedral_coeff	 2 aat  -29.04200  112.67000  111.27000  # c,c,c,oc
dihedral_coeff	 3 aat  -22.04500  112.67000  112.67000  # c,c,c1,c
dihedral_coeff	 4 aat  -16.16400  112.67000  110.77000  # c,c,c1,hc
dihedral_coeff	 5 aat  -19.00590  111.27000  104.50000  # c,c,oc,c
dihedral_coeff	 6 aat  -19.00590  111.27000  104.50000  # c,c,oc,c1
dihedral_coeff	 7 aat  -16.16400  112.67000  110.77000  # c,c1,c,hc
dihedral_coeff	 8 aat  -29.04200  112.67000  111.27000  # c,c1,c,oc
dihedral_coeff	 9 aat  -29.04200  112.67000  111.27000  # c,c1,c,oh
dihedral_coeff	10 aat  -19.00590  111.27000  104.50000  # c,c1,oc,c
dihedral_coeff	11 aat  -16.16400  112.67000  110.77000  # c,c3h,c,hc
dihedral_coeff	12 aat  -29.04200  112.67000  111.27000  # c,c3h,c,o3e
dihedral_coeff	13 aat  -29.04200  112.67000  111.27000  # c,c3h,c,oc
dihedral_coeff	14 aat  -19.00590  111.27000  104.50000  # c,c3h,o3e,c
dihedral_coeff	15 aat  -16.44380  104.50000  108.72800  # c,o3e,c3h,hc
dihedral_coeff	16 aat  -19.00590  104.50000  111.27000  # c,oc,c,c1
dihedral_coeff	17 aat  -19.00590  104.50000  111.27000  # c,oc,c,c3h
dihedral_coeff	18 aat  -16.44380  104.50000  108.72800  # c,oc,c,hc
dihedral_coeff	19 aat  -16.44380  104.50000  108.72800  # c,oc,c1,hc
dihedral_coeff	20 aat  -22.04500  112.67000  112.67000  # c1,c,c,c1
dihedral_coeff	21 aat  -16.16400  112.67000  110.77000  # c1,c,c,hc
dihedral_coeff	22 aat  -19.00590  111.27000  104.50000  # c1,c,oc,c1
dihedral_coeff	23 aat    0.00000  111.27000  109.00000  # c1,c,oh,h
dihedral_coeff	24 aat  -16.44380  104.50000  108.72800  # c1,oc,c,hc
dihedral_coeff	25 aat  -16.44380  104.50000  108.72800  # c3h,o3e,c,hc
dihedral_coeff	26 aat    0.00000  109.00000  108.72800  # h,oh,c,hc
dihedral_coeff	27 aat  -12.56400  110.77000  110.77000  # hc,c,c,hc
dihedral_coeff	28 aat  -20.20060  110.77000  111.27000  # hc,c,c,oc
dihedral_coeff	29 aat  -12.56400  110.77000  110.77000  # hc,c,c1,hc
dihedral_coeff	30 aat  -20.20060  110.77000  111.27000  # hc,c,c1,oc
dihedral_coeff	31 aat  -12.56400  110.77000  110.77000  # hc,c,c3h,hc
dihedral_coeff	32 aat  -20.20060  110.77000  111.27000  # hc,c,c3h,o3e
dihedral_coeff	33 aat  -20.20060  110.77000  111.27000  # hc,c1,c,oc
dihedral_coeff	34 aat  -20.20060  110.77000  111.27000  # hc,c1,c,oh
dihedral_coeff	35 aat  -20.20060  110.77000  111.27000  # hc,c3h,c,o3e
dihedral_coeff	36 aat  -20.20060  110.77000  111.27000  # hc,c3h,c,oc
dihedral_coeff	37 aat  -14.04840  111.27000  111.27000  # o3e,c3h,c,oc
dihedral_coeff	38 aat  -14.04840  111.27000  111.27000  # oc,c,c1,oc
dihedral_coeff	39 aat  -14.04840  111.27000  111.27000  # oc,c1,c,oh

# BondBond13 Coeffs

dihedral_coeff	 1 bb13    0.00000    1.53000    1.10100  # c,c,c,hc
dihedral_coeff	 2 bb13    0.00000    1.53000    1.42000  # c,c,c,oc
dihedral_coeff	 3 bb13    0.00000    1.53000    1.53000  # c,c,c1,c
dihedral_coeff	 4 bb13    0.00000    1.53000    1.10100  # c,c,c1,hc
dihedral_coeff	 5 bb13    0.00000    1.53000    1.42000  # c,c,oc,c
dihedral_coeff	 6 bb13    0.00000    1.53000    1.42000  # c,c,oc,c1
dihedral_coeff	 7 bb13    0.00000    1.53000    1.10100  # c,c1,c,hc
dihedral_coeff	 8 bb13    0.00000    1.53000    1.42000  # c,c1,c,oc
dihedral_coeff	 9 bb13    0.00000    1.53000    1.42000  # c,c1,c,oh
dihedral_coeff	10 bb13    0.00000    1.53000    1.42000  # c,c1,oc,c
dihedral_coeff	11 bb13    0.00000    1.53000    1.10100  # c,c3h,c,hc
dihedral_coeff	12 bb13    0.00000    1.53000    1.42000  # c,c3h,c,o3e
dihedral_coeff	13 bb13    0.00000    1.53000    1.42000  # c,c3h,c,oc
dihedral_coeff	14 bb13    0.00000    1.53000    1.42000  # c,c3h,o3e,c
dihedral_coeff	15 bb13    0.00000    1.42000    1.10100  # c,o3e,c3h,hc
dihedral_coeff	16 bb13    0.00000    1.42000    1.53000  # c,oc,c,c1
dihedral_coeff	17 bb13    0.00000    1.42000    1.53000  # c,oc,c,c3h
dihedral_coeff	18 bb13    0.00000    1.42000    1.10100  # c,oc,c,hc
dihedral_coeff	19 bb13    0.00000    1.42000    1.10100  # c,oc,c1,hc
dihedral_coeff	20 bb13    0.00000    1.53000    1.53000  # c1,c,c,c1
dihedral_coeff	21 bb13    0.00000    1.53000    1.10100  # c1,c,c,hc
dihedral_coeff	22 bb13    0.00000    1.53000    1.42000  # c1,c,oc,c1
dihedral_coeff	23 bb13    0.00000    1.53000    0.96000  # c1,c,oh,h
dihedral_coeff	24 bb13    0.00000    1.42000    1.10100  # c1,oc,c,hc
dihedral_coeff	25 bb13    0.00000    1.42000    1.10100  # c3h,o3e,c,hc
dihedral_coeff	26 bb13    0.00000    0.96000    1.10100  # h,oh,c,hc
dihedral_coeff	27 bb13    0.00000    1.10100    1.10100  # hc,c,c,hc
dihedral_coeff	28 bb13    0.00000    1.10100    1.42000  # hc,c,c,oc
dihedral_coeff	29 bb13    0.00000    1.10100    1.10100  # hc,c,c1,hc
dihedral_coeff	30 bb13    0.00000    1.10100    1.42000  # hc,c,c1,oc
dihedral_coeff	31 bb13    0.00000    1.10100    1.10100  # hc,c,c3h,hc
dihedral_coeff	32 bb13    0.00000    1.10100    1.42000  # hc,c,c3h,o3e
dihedral_coeff	33 bb13    0.00000    1.10100    1.42000  # hc,c1,c,oc
dihedral_coeff	34 bb13    0.00000    1.10100    1.42000  # hc,c1,c,oh
dihedral_coeff	35 bb13    0.00000    1.10100    1.42000  # hc,c3h,c,o3e
dihedral_coeff	36 bb13    0.00000    1.10100    1.42000  # hc,c3h,c,oc
dihedral_coeff	37 bb13    0.00000    1.42000    1.42000  # o3e,c3h,c,oc
dihedral_coeff	38 bb13    0.00000    1.42000    1.42000  # oc,c,c1,oc
dihedral_coeff	39 bb13    0.00000    1.42000    1.42000  # oc,c1,c,oh

# Improper Coeffs

improper_coeff	 1    0.00000    0.00000  # c,c,c,hc
improper_coeff	 2    0.00000    0.00000  # c,c,c1,hc
improper_coeff	 3    0.00000    0.00000  # c,c,hc,c1
improper_coeff	 4    0.00000    0.00000  # c,c,hc,hc
improper_coeff	 5    0.00000    0.00000  # c,c,hc,oc
improper_coeff	 6    0.00000    0.00000  # c,c,oc,hc
improper_coeff	 7    0.00000    0.00000  # c,c1,hc,hc
improper_coeff	 8    0.00000    0.00000  # c,c1,hc,oc
improper_coeff	 9    0.00000    0.00000  # c,c1,hc,oh
improper_coeff	10    0.00000    0.00000  # c,c1,oc,hc
improper_coeff	11    0.00000    0.00000  # c,c3h,hc,hc
improper_coeff	12    0.00000    0.00000  # c,c3h,hc,o3e
improper_coeff	13    0.00000    0.00000  # c,c3h,hc,oc
improper_coeff	14    0.00000    0.00000  # c,c3h,o3e,hc
improper_coeff	15    0.00000    0.00000  # c,hc,hc,o3e
improper_coeff	16    0.00000    0.00000  # c,hc,hc,oc
improper_coeff	17    0.00000    0.00000  # c,hc,hc,oh
improper_coeff	18    0.00000    0.00000  # c1,c,c,c
improper_coeff	19    0.00000    0.00000  # c1,c,c,hc
improper_coeff	20    0.00000    0.00000  # c1,c,c,oc
improper_coeff	21    0.00000    0.00000  # c1,c,oc,hc
improper_coeff	22    0.00000    0.00000  # c3h,c,c,hc
improper_coeff	23    0.00000    0.00000  # c3h,c,c,o3e
improper_coeff	24    0.00000    0.00000  # c3h,c,hc,o3e
improper_coeff	25    0.00000    0.00000  # c3h,c,o3e,hc

# AngleAngle Coeffs

improper_coeff	 1 aa    0.00000    0.00000    0.11840  112.67000  110.77000  110.77000  # c,c,c,hc
improper_coeff	 2 aa    0.00000   -1.31990    0.00000  112.67000  110.77000  110.77000  # c,c,c1,hc
improper_coeff	 3 aa    0.00000   -1.31990    0.00000  110.77000  112.67000  110.77000  # c,c,hc,c1
improper_coeff	 4 aa    0.00000   -0.48250    0.00000  110.77000  110.77000  107.66000  # c,c,hc,hc
improper_coeff	 5 aa    3.91770    2.59260    0.00000  110.77000  111.27000  108.72800  # c,c,hc,oc
improper_coeff	 6 aa    0.00000    2.59260    3.91770  111.27000  110.77000  108.72800  # c,c,oc,hc
improper_coeff	 7 aa    0.27380   -0.48250    0.27380  110.77000  110.77000  107.66000  # c,c1,hc,hc
improper_coeff	 8 aa    3.91770    2.59260    0.16890  110.77000  111.27000  108.72800  # c,c1,hc,oc
improper_coeff	 9 aa    3.91770    2.59260    0.16890  110.77000  111.27000  108.72800  # c,c1,hc,oh
improper_coeff	10 aa    0.16890    2.59260    3.91770  111.27000  110.77000  108.72800  # c,c1,oc,hc
improper_coeff	11 aa    0.00000   -0.48250    0.00000  110.77000  110.77000  107.66000  # c,c3h,hc,hc
improper_coeff	12 aa    3.91770    2.59260    0.00000  110.77000  111.27000  108.72800  # c,c3h,hc,o3e
improper_coeff	13 aa    0.00000    2.59260    0.00000  110.77000  111.27000  108.72800  # c,c3h,hc,oc
improper_coeff	14 aa    0.00000    2.59260    3.91770  111.27000  110.77000  108.72800  # c,c3h,o3e,hc
improper_coeff	15 aa    2.42590    2.42590    2.12830  107.66000  108.72800  108.72800  # c,hc,hc,o3e
improper_coeff	16 aa    2.42590    2.42590    2.12830  107.66000  108.72800  108.72800  # c,hc,hc,oc
improper_coeff	17 aa    2.42590    2.42590    2.12830  107.66000  108.72800  108.72800  # c,hc,hc,oh
improper_coeff	18 aa   -0.17290   -0.17290   -0.17290  112.67000  112.67000  112.67000  # c1,c,c,c
improper_coeff	19 aa    0.00000    0.00000    0.11840  112.67000  110.77000  110.77000  # c1,c,c,hc
improper_coeff	20 aa   -0.83300   -0.83300   -3.57440  112.67000  111.27000  111.27000  # c1,c,c,oc
improper_coeff	21 aa    0.00000    2.59260    3.91770  111.27000  110.77000  108.72800  # c1,c,oc,hc
improper_coeff	22 aa    0.00000    0.00000    0.11840  112.67000  110.77000  110.77000  # c3h,c,c,hc
improper_coeff	23 aa   -0.83300   -0.83300   -3.57440  112.67000  111.27000  111.27000  # c3h,c,c,o3e
improper_coeff	24 aa    3.91770    2.59260    0.00000  110.77000  111.27000  108.72800  # c3h,c,hc,o3e
improper_coeff	25 aa    0.00000    2.59260    3.91770  111.27000  110.77000  108.72800  # c3h,c,o3e,hc

# ------------------------------- OPT Section -------------------------------
minimize 1.0e-5 1.0e-7 100000 400000
PPPM initialization ...
  G vector (1/distance) = 0.11665513
  grid = 4 4 4
  stencil order = 5
  estimated absolute RMS force accuracy = 0.24122568
  estimated relative force accuracy = 0.00072644397
  3d grid and FFT values/proc = 294 4
Generated 28 of 28 mixed pair_coeff terms from sixthpower/sixthpower mixing rule
  PPPM/cg optimization cutoff: 1e-05
  Total charged atoms: 100.0%
  Min/max charged atoms/proc: 100.0% 100.0%
Step          Temp          E_pair         E_mol          TotEng         Press
0   590.86377      897.25628      11315.839      21035.21      -232.90118
Loop time of 1.15654 on 24 procs for 112 steps with 5010 atoms

Minimization stats:
  Stopping criterion = linesearch alpha is zero
  Energy initial, next-to-last, final =
  Force two-norm initial, final = 3324.3709 52.164869
  Force max component initial, final = 136.48056 7.4681131
  Final line search alpha, max atom move = 2.8632351e-12 2.1382964e-11
  Iterations, force evaluations = 112 282

# ------------------------------- Run Section -------------------------------
#

timestep 0.25
neighbor        2.0 bin
neigh_modify    delay 0 every 1 check yes

thermo_style custom step temp pe evdwl ecoul ebond eangle edihed eimp density vol
thermo 20000

variable        Rho equal density
variable        Temp equal temp
variable        Volume equal vol
fix             fDENS all ave/time 100 100 300000 v_Temp v_Rho v_Volume file temp_vs_density.txt

label           loop
variable        a loop 26
variable        b equal 600-20*($a-1)
variable        b equal 600-20*(1-1)
fix             fMOM all momentum 100 linear 1 1 1 angular
fix             fNPT all npt temp $b $b $(100.0*dt) iso 1 1 $(100.0*dt)
fix             fNPT all npt temp 600 $b $(100.0*dt) iso 1 1 $(100.0*dt)
fix             fNPT all npt temp 600 600 $(100.0*dt) iso 1 1 $(100.0*dt)
fix             fNPT all npt temp 600 600 25 iso 1 1 $(100.0*dt)
fix             fNPT all npt temp 600 600 25 iso 1 1 25
run             1200000
PPPM initialization ...
  G vector (1/distance) = 0.11665513
  grid = 4 4 4
  stencil order = 5
  estimated absolute RMS force accuracy = 0.24122568
  estimated relative force accuracy = 0.00072644397
  3d grid and FFT values/proc = 294 4
Generated 28 of 28 mixed pair_coeff terms from sixthpower/sixthpower mixing rule
Step          Temp          PotEng         E_vdwl         E_coul         E_bond        E_angle        E_dihed        E_impro        Density         Volume
112   590.86377      3297.5951     -1183.0884      2488.4295      267.43613      8720.1677     -5814.7968     -39.808759      0.93009739     54483.448
Averages over the last 31 of 62 rows, steps 620000 to 1200112:
Temp PotEng E_vdwl E_coul E_bond E_angle E_dihed E_impro Density Volume
600.453 12276.7 -477.074 2513.76 3705.34 13045.9 -5305.08 -65.3186 0.927207 54657.5
Loop time of 3895.94 on 24 procs for 1200000 steps with 5010 atoms

unfix           fNPT
unfix           fMOM
next            a
jump            SELF loop
variable        a loop 26
variable        b equal 600-20*($a-1)
variable        b equal 600-20*(2-1)
fix             fMOM all momentum 100 linear 1 1 1 angular
fix             fNPT all npt temp $b $b $(100.0*dt) iso 1 1 $(100.0*dt)
fix             fNPT all npt temp 580 $b $(100.0*dt) iso 1 1 $(100.0*dt)
fix             fNPT all npt temp 580 580 $(100.0*dt) iso 1 1 $(100.0*dt)
fix             fNPT all npt temp 580 580 25 iso 1 1 $(100.0*dt)
fix             fNPT all npt temp 580 580 25 iso 1 1 25
run             1200000
PPPM initialization ...
  G vector (1/distance) = 0.11658148
  grid = 4 4 4
  stencil order = 5
  estimated absolute RMS force accuracy = 0.24132474
  estimated relative force accuracy = 0.00072674229
  3d grid and FFT values/proc = 294 4
Generated 28 of 28 mixed pair_coeff terms from sixthpower/sixthpower mixing rule
Step          Temp          PotEng         E_vdwl         E_coul         E_bond        E_angle        E_dihed        E_impro        Density         Volume
1200112   607.99292      12357.754     -477.20597      2507.9302      3626.5589      13271.377     -5353.2199     -76.546919      0.92766914     54626.062
Averages over the last 31 of 62 rows, steps 1820000 to 2400112:
Temp PotEng E_vdwl E_coul E_bond E_angle E_dihed E_impro Density Volume
581.273 11906.6 -500.541 2505.37 3584.58 12858.5 -5336.66 -64.6746 0.933517 54289.1
Loop time of 3948.18 on 24 procs for 1200000 steps with 5010 atoms

unfix           fNPT
unfix           fMOM
next            a
jump            SELF loop
variable        a loop 26
variable        b equal 600-20*($a-1)
variable        b equal 600-20*(3-1)
fix             fMOM all momentum 100 linear 1 1 1 angular
fix             fNPT all npt temp $b $b $(100.0*dt) iso 1 1 $(100.0*dt)
fix             fNPT all npt temp 560 $b $(100.0*dt) iso 1 1 $(100.0*dt)
fix             fNPT all npt temp 560 560 $(100.0*dt) iso 1 1 $(100.0*dt)
fix             fNPT all npt temp 560 560 25 iso 1 1 $(100.0*dt)
fix             fNPT all npt temp 560 560 25 iso 1 1 25
run             1200000
PPPM initialization ...
  G vector (1/distance) = 0.11651122
  grid = 4 4 4
  stencil order = 5
  estimated absolute RMS force accuracy = 0.24141896
  estimated relative force accuracy = 0.00072702602
  3d grid and FFT values/proc = 294 4
Generated 28 of 28 mixed pair_coeff terms from sixthpower/sixthpower mixing rule
Step          Temp          PotEng         E_vdwl         E_coul         E_bond        E_angle        E_dihed        E_impro        Density         Volume
2400112   580.99233      11894.802     -445.37257      2512.4759      3573.7423      12833.359     -5365.1879     -73.632889      0.92535744     54762.528
Averages over the last 31 of 62 rows, steps 3020000 to 3600112:
Temp PotEng E_vdwl E_coul E_bond E_angle E_dihed E_impro Density Volume
558.218 11543.8 -568.745 2494.18 3472.15 12718.7 -5369.84 -63.5294 0.942138 53791.3
Loop time of 3936.41 on 24 procs for 1200000 steps with 5010 atoms

unfix           fNPT
unfix           fMOM
next            a
jump            SELF loop
variable        a loop 26
variable        b equal 600-20*($a-1)
variable        b equal 600-20*(4-1)
fix             fMOM all momentum 100 linear 1 1 1 angular
fix             fNPT all npt temp $b $b $(100.0*dt) iso 1 1 $(100.0*dt)
fix             fNPT all npt temp 540 $b $(100.0*dt) iso 1 1 $(100.0*dt)
fix             fNPT all npt temp 540 540 $(100.0*dt) iso 1 1 $(100.0*dt)
fix             fNPT all npt temp 540 540 25 iso 1 1 $(100.0*dt)
fix             fNPT all npt temp 540 540 25 iso 1 1 25
run             1200000
PPPM initialization ...
  G vector (1/distance) = 0.11705967
  grid = 4 4 4
  stencil order = 5
  estimated absolute RMS force accuracy = 0.24067575
  estimated relative force accuracy = 0.00072478786
  3d grid and FFT values/proc = 294 4
Generated 28 of 28 mixed pair_coeff terms from sixthpower/sixthpower mixing rule
Step          Temp          PotEng         E_vdwl         E_coul         E_bond        E_angle        E_dihed        E_impro        Density         Volume
3600112   548.27398      11363.381     -609.57269      2487.2538      3420.9553      12624.556     -5349.6129     -64.653142      0.9435356      53707.473
Averages over the last 31 of 62 rows, steps 4220000 to 4800112:
Temp PotEng E_vdwl E_coul E_bond E_angle E_dihed E_impro Density Volume
539.9 11169.1 -615.636 2507.64 3337.72 12555.7 -5408.45 -63.3281 0.952702 53194.1
Loop time of 3943.29 on 24 procs for 1200000 steps with 5010 atoms

unfix           fNPT
unfix           fMOM
next            a
jump            SELF loop
variable        a loop 26
variable        b equal 600-20*($a-1)
variable        b equal 600-20*(5-1)
fix             fMOM all momentum 100 linear 1 1 1 angular
fix             fNPT all npt temp $b $b $(100.0*dt) iso 1 1 $(100.0*dt)
fix             fNPT all npt temp 520 $b $(100.0*dt) iso 1 1 $(100.0*dt)
fix             fNPT all npt temp 520 520 $(100.0*dt) iso 1 1 $(100.0*dt)
fix             fNPT all npt temp 520 520 25 iso 1 1 $(100.0*dt)
fix             fNPT all npt temp 520 520 25 iso 1 1 25
run             1200000
PPPM initialization ...
  G vector (1/distance) = 0.11720268
  grid = 4 4 4
  stencil order = 5
  estimated absolute RMS force accuracy = 0.24047901
  estimated relative force accuracy = 0.00072419539
  3d grid and FFT values/proc = 294 4
Generated 28 of 28 mixed pair_coeff terms from sixthpower/sixthpower mixing rule
Step          Temp          PotEng         E_vdwl         E_coul         E_bond        E_angle        E_dihed        E_impro        Density         Volume
4800112   539.07696      11383.798     -572.06536      2508.0911      3377.3687      12807.165     -5530.6528     -59.403428      0.94832682     53436.127
Averages over the last 31 of 62 rows, steps 5420000 to 6000112:
Temp PotEng E_vdwl E_coul E_bond E_angle E_dihed E_impro Density Volume
522.413 10885.7 -648.523 2498.26 3226.16 12432.2 -5413.7 -62.4029 0.956901 52962.8
Loop time of 3966.33 on 24 procs for 1200000 steps with 5010 atoms

unfix           fNPT
unfix           fMOM
next            a
jump            SELF loop
variable        a loop 26
variable        b equal 600-20*($a-1)
variable        b equal 600-20*(6-1)
fix             fMOM all momentum 100 linear 1 1 1 angular
fix             fNPT all npt temp $b $b $(100.0*dt) iso 1 1 $(100.0*dt)
fix             fNPT all npt temp 500 $b $(100.0*dt) iso 1 1 $(100.0*dt)
fix             fNPT all npt temp 500 500 $(100.0*dt) iso 1 1 $(100.0*dt)
fix             fNPT all npt temp 500 500 25 iso 1 1 $(100.0*dt)
fix             fNPT all npt temp 500 500 25 iso 1 1 25
run             1200000
PPPM initialization ...
  G vector (1/distance) = 0.11733663
  grid = 4 4 4
  stencil order = 5
  estimated absolute RMS force accuracy = 0.24029365
  estimated relative force accuracy = 0.00072363719
  3d grid and FFT values/proc = 294 4
Generated 28 of 28 mixed pair_coeff terms from sixthpower/sixthpower mixing rule
Step          Temp          PotEng         E_vdwl         E_coul         E_bond        E_angle        E_dihed        E_impro        Density         Volume
6000112   527.78677      10983.976     -575.03938      2505.7325      3194.867       12465.319     -5392.6056     -67.248389      0.95283357     53183.383
Averages over the last 31 of 62 rows, steps 6620000 to 7200112:
Temp PotEng E_vdwl E_coul E_bond E_angle E_dihed E_impro Density Volume
499.365 10461.8 -721.676 2501.15 3090.04 12261.8 -5461.88 -60.3619 0.969937 52250.1
Loop time of 4009.22 on 24 procs for 1200000 steps with 5010 atoms

unfix           fNPT
unfix           fMOM
next            a
jump            SELF loop
variable        a loop 26
variable        b equal 600-20*($a-1)
variable        b equal 600-20*(7-1)
fix             fMOM all momentum 100 linear 1 1 1 angular
fix             fNPT all npt temp $b $b $(100.0*dt) iso 1 1 $(100.0*dt)
fix             fNPT all npt temp 480 $b $(100.0*dt) iso 1 1 $(100.0*dt)
fix             fNPT all npt temp 480 480 $(100.0*dt) iso 1 1 $(100.0*dt)
fix             fNPT all npt temp 480 480 25 iso 1 1 $(100.0*dt)
fix             fNPT all npt temp 480 480 25 iso 1 1 25
run             1200000
PPPM initialization ...
  G vector (1/distance) = 0.1177796
  grid = 4 4 4
  stencil order = 5
  estimated absolute RMS force accuracy = 0.23967319
  estimated relative force accuracy = 0.00072176869
  3d grid and FFT values/proc = 294 4
Generated 28 of 28 mixed pair_coeff terms from sixthpower/sixthpower mixing rule
Step          Temp          PotEng         E_vdwl         E_coul         E_bond        E_angle        E_dihed        E_impro        Density         Volume
7200112   493.19811      10343.601     -680.22152      2512.2041      3079.7565      12099.854     -5452.7676     -63.560619      0.96787141     52357.071
Averages over the last 31 of 62 rows, steps 7820000 to 8400112:
Temp PotEng E_vdwl E_coul E_bond E_angle E_dihed E_impro Density Volume
480.653 10105.1 -767.923 2495.07 2979.97 12086.6 -5477.28 -59.4996 0.974784 51988.5
Loop time of 4003.02 on 24 procs for 1200000 steps with 5010 atoms

unfix           fNPT
unfix           fMOM
next            a
jump            SELF loop
variable        a loop 26
variable        b equal 600-20*($a-1)
variable        b equal 600-20*(8-1)
fix             fMOM all momentum 100 linear 1 1 1 angular
fix             fNPT all npt temp $b $b $(100.0*dt) iso 1 1 $(100.0*dt)
fix             fNPT all npt temp 460 $b $(100.0*dt) iso 1 1 $(100.0*dt)
fix             fNPT all npt temp 460 460 $(100.0*dt) iso 1 1 $(100.0*dt)
fix             fNPT all npt temp 460 460 25 iso 1 1 $(100.0*dt)
fix             fNPT all npt temp 460 460 25 iso 1 1 25
run             1200000
PPPM initialization ...
  G vector (1/distance) = 0.11781271
  grid = 4 4 4
  stencil order = 5
  estimated absolute RMS force accuracy = 0.23962635
  estimated relative force accuracy = 0.00072162764
  3d grid and FFT values/proc = 294 4
Generated 28 of 28 mixed pair_coeff terms from sixthpower/sixthpower mixing rule
Step          Temp          PotEng         E_vdwl         E_coul         E_bond        E_angle        E_dihed        E_impro        Density         Volume
8400112   482.94326      10074.359     -726.10034      2482.6333      3005.0522      12027.555     -5499.5265     -62.221341      0.96900381     52295.886
Averages over the last 31 of 62 rows, steps 9020000 to 9600112:
Temp PotEng E_vdwl E_coul E_bond E_angle E_dihed E_impro Density Volume
459.814 9791.66 -835.829 2495.55 2875.23 11981.9 -5514.85 -58.6366 0.991903 51091.8
Loop time of 3971.62 on 24 procs for 1200000 steps with 5010 atoms

unfix           fNPT
unfix           fMOM
next            a
jump            SELF loop
variable        a loop 26
variable        b equal 600-20*($a-1)
variable        b equal 600-20*(9-1)
fix             fMOM all momentum 100 linear 1 1 1 angular
fix             fNPT all npt temp $b $b $(100.0*dt) iso 1 1 $(100.0*dt)
fix             fNPT all npt temp 440 $b $(100.0*dt) iso 1 1 $(100.0*dt)
fix             fNPT all npt temp 440 440 $(100.0*dt) iso 1 1 $(100.0*dt)
fix             fNPT all npt temp 440 440 25 iso 1 1 $(100.0*dt)
fix             fNPT all npt temp 440 440 25 iso 1 1 25
run             1200000
PPPM initialization ...
  G vector (1/distance) = 0.11848097
  grid = 4 4 4
  stencil order = 5
  estimated absolute RMS force accuracy = 0.23866756
  estimated relative force accuracy = 0.00071874026
  3d grid and FFT values/proc = 294 4
Generated 28 of 28 mixed pair_coeff terms from sixthpower/sixthpower mixing rule
Step          Temp          PotEng         E_vdwl         E_coul         E_bond        E_angle        E_dihed        E_impro        Density         Volume
9600112   460.78899      9874.4396     -801.23499      2497.3658      2869.9828      12018.704     -5498.0692     -54.999753      0.99210731     51078.056
Averages over the last 31 of 62 rows, steps 10220000 to 10800112:
Temp PotEng E_vdwl E_coul E_bond E_angle E_dihed E_impro Density Volume
440.919 9435.09 -881.318 2505.87 2731.57 11822.5 -5525.18 -59.5969 0.998819 50736.7
Loop time of 3960.54 on 24 procs for 1200000 steps with 5010 atoms

unfix           fNPT
unfix           fMOM
next            a
jump            SELF loop
variable        a loop 26
variable        b equal 600-20*($a-1)
variable        b equal 600-20*(10-1)
fix             fMOM all momentum 100 linear 1 1 1 angular
fix             fNPT all npt temp $b $b $(100.0*dt) iso 1 1 $(100.0*dt)
fix             fNPT all npt temp 420 $b $(100.0*dt) iso 1 1 $(100.0*dt)
fix             fNPT all npt temp 420 420 $(100.0*dt) iso 1 1 $(100.0*dt)
fix             fNPT all npt temp 420 420 25 iso 1 1 $(100.0*dt)
fix             fNPT all npt temp 420 420 25 iso 1 1 25
run             1200000
PPPM initialization ...
  G vector (1/distance) = 0.11850754
  grid = 4 4 4
  stencil order = 5
  estimated absolute RMS force accuracy = 0.23862891
  estimated relative force accuracy = 0.00071862387
  3d grid and FFT values/proc = 294 4
Generated 28 of 28 mixed pair_coeff terms from sixthpower/sixthpower mixing rule
Step          Temp          PotEng         E_vdwl         E_coul         E_bond        E_angle        E_dihed        E_impro        Density         Volume
10800112   436.78717      9447.0242     -873.86322      2521.0066      2726.3807      11826.809     -5539.215      -55.430063      0.99303577     51030.299
Averages over the last 31 of 62 rows, steps 11420000 to 12000112:
Temp PotEng E_vdwl E_coul E_bond E_angle E_dihed E_impro Density Volume
419.694 9050.77 -944.601 2495.6 2609.91 11668.4 -5561.03 -58.498 1.00677 50335.4
Loop time of 4022.62 on 24 procs for 1200000 steps with 5010 atoms

unfix           fNPT
unfix           fMOM
next            a
jump            SELF loop
variable        a loop 26
variable        b equal 600-20*($a-1)
variable        b equal 600-20*(11-1)
fix             fMOM all momentum 100 linear 1 1 1 angular
fix             fNPT all npt temp $b $b $(100.0*dt) iso 1 1 $(100.0*dt)
fix             fNPT all npt temp 400 $b $(100.0*dt) iso 1 1 $(100.0*dt)
fix             fNPT all npt temp 400 400 $(100.0*dt) iso 1 1 $(100.0*dt)
fix             fNPT all npt temp 400 400 25 iso 1 1 $(100.0*dt)
fix             fNPT all npt temp 400 400 25 iso 1 1 25
run             1200000
PPPM initialization ...
  G vector (1/distance) = 0.11904768
  grid = 4 4 4
  stencil order = 5
  estimated absolute RMS force accuracy = 0.23783452
  estimated relative force accuracy = 0.0007162316
  3d grid and FFT values/proc = 294 4
Generated 28 of 28 mixed pair_coeff terms from sixthpower/sixthpower mixing rule
Step          Temp          PotEng         E_vdwl         E_coul         E_bond        E_angle        E_dihed        E_impro        Density         Volume
12000112   429.38136      8934.9679     -988.93257      2508.0994      2488.9858      11700.871     -5551.7472     -57.341625      1.0120778      50070.173
Averages over the last 31 of 62 rows, steps 12620000 to 13200112:
Temp PotEng E_vdwl E_coul E_bond E_angle E_dihed E_impro Density Volume
399.451 8768.62 -967.641 2498.7 2522.65 11508.6 -5571.99 -57.1201 1.00769 50290.3
Loop time of 4010.96 on 24 procs for 1200000 steps with 5010 atoms

unfix           fNPT
unfix           fMOM
next            a
jump            SELF loop
variable        a loop 26
variable        b equal 600-20*($a-1)
variable        b equal 600-20*(12-1)
fix             fMOM all momentum 100 linear 1 1 1 angular
fix             fNPT all npt temp $b $b $(100.0*dt) iso 1 1 $(100.0*dt)
fix             fNPT all npt temp 380 $b $(100.0*dt) iso 1 1 $(100.0*dt)
fix             fNPT all npt temp 380 380 $(100.0*dt) iso 1 1 $(100.0*dt)
fix             fNPT all npt temp 380 380 25 iso 1 1 $(100.0*dt)
fix             fNPT all npt temp 380 380 25 iso 1 1 25
run             1200000
PPPM initialization ...
  G vector (1/distance) = 0.11903754
  grid = 4 4 4
  stencil order = 5
  estimated absolute RMS force accuracy = 0.2378496
  estimated relative force accuracy = 0.00071627701
  3d grid and FFT values/proc = 294 4
Generated 28 of 28 mixed pair_coeff terms from sixthpower/sixthpower mixing rule
Step          Temp          PotEng         E_vdwl         E_coul         E_bond        E_angle        E_dihed        E_impro        Density         Volume
13200112   401.58358      8722.9017     -974.12674      2504.8765      2615.8557      11406.649     -5605.8608     -60.215187      1.0117171      50088.025
Averages over the last 31 of 62 rows, steps 13820000 to 14400112:
Temp PotEng E_vdwl E_coul E_bond E_angle E_dihed E_impro Density Volume
380.353 8391.55 -1012.02 2496.66 2383.89 11338.4 -5594.39 -56.4307 1.0184 49761
Loop time of 3983.56 on 24 procs for 1200000 steps with 5010 atoms

unfix           fNPT
unfix           fMOM
next            a
jump            SELF loop
variable        a loop 26
variable        b equal 600-20*($a-1)
variable        b equal 600-20*(13-1)
fix             fMOM all momentum 100 linear 1 1 1 angular
fix             fNPT all npt temp $b $b $(100.0*dt) iso 1 1 $(100.0*dt)
fix             fNPT all npt temp 360 $b $(100.0*dt) iso 1 1 $(100.0*dt)
fix             fNPT all npt temp 360 360 $(100.0*dt) iso 1 1 $(100.0*dt)
fix             fNPT all npt temp 360 360 25 iso 1 1 $(100.0*dt)
fix             fNPT all npt temp 360 360 25 iso 1 1 25
run             1200000
PPPM initialization ...
  G vector (1/distance) = 0.11907247
  grid = 4 4 4
  stencil order = 5
  estimated absolute RMS force accuracy = 0.23779767
  estimated relative force accuracy = 0.00071612063
  3d grid and FFT values/proc = 294 4
Generated 28 of 28 mixed pair_coeff terms from sixthpower/sixthpower mixing rule
Step          Temp          PotEng         E_vdwl         E_coul         E_bond        E_angle        E_dihed        E_impro        Density         Volume
14400112   379.5566       8359.3973     -1020.1129      2496.9428      2363.6751      11307.743     -5569.6059     -54.257842      1.0129594      50026.597
Averages over the last 31 of 62 rows, steps 15020000 to 15600112:
Temp PotEng E_vdwl E_coul E_bond E_angle E_dihed E_impro Density Volume
360.89 8029.71 -1101.06 2489.94 2283.7 11208.8 -5632.34 -54.6398 1.03422 48999.6
Loop time of 3958.68 on 24 procs for 1200000 steps with 5010 atoms

unfix           fNPT
unfix           fMOM
next            a
jump            SELF loop
variable        a loop 26
variable        b equal 600-20*($a-1)
variable        b equal 600-20*(14-1)
fix             fMOM all momentum 100 linear 1 1 1 angular
fix             fNPT all npt temp $b $b $(100.0*dt) iso 1 1 $(100.0*dt)
fix             fNPT all npt temp 340 $b $(100.0*dt) iso 1 1 $(100.0*dt)
fix             fNPT all npt temp 340 340 $(100.0*dt) iso 1 1 $(100.0*dt)
fix             fNPT all npt temp 340 340 25 iso 1 1 $(100.0*dt)
fix             fNPT all npt temp 340 340 25 iso 1 1 25
run             1200000
PPPM initialization ...
  G vector (1/distance) = 0.11985787
  grid = 4 4 4
  stencil order = 5
  estimated absolute RMS force accuracy = 0.23661246
  estimated relative force accuracy = 0.0007125514
  3d grid and FFT values/proc = 294 4
Generated 28 of 28 mixed pair_coeff terms from sixthpower/sixthpower mixing rule
Step          Temp          PotEng         E_vdwl         E_coul         E_bond        E_angle        E_dihed        E_impro        Density         Volume
15600112   354.0667       8028.4149     -1139.0368      2506.7443      2269.1372      11227.293     -5608.3303     -55.06874       1.041242       48667.758
Averages over the last 31 of 62 rows, steps 16220000 to 16800112:
Temp PotEng E_vdwl E_coul E_bond E_angle E_dihed E_impro Density Volume
340.376 7660.58 -1150.41 2501.01 2156.15 11048.4 -5669.06 -53.8546 1.04184 48640.6
Loop time of 4002.62 on 24 procs for 1200000 steps with 5010 atoms

unfix           fNPT
unfix           fMOM
next            a
jump            SELF loop
variable        a loop 26
variable        b equal 600-20*($a-1)
variable        b equal 600-20*(15-1)
fix             fMOM all momentum 100 linear 1 1 1 angular
fix             fNPT all npt temp $b $b $(100.0*dt) iso 1 1 $(100.0*dt)
fix             fNPT all npt temp 320 $b $(100.0*dt) iso 1 1 $(100.0*dt)
fix             fNPT all npt temp 320 320 $(100.0*dt) iso 1 1 $(100.0*dt)
fix             fNPT all npt temp 320 320 25 iso 1 1 $(100.0*dt)
fix             fNPT all npt temp 320 320 25 iso 1 1 25
run             1200000
PPPM initialization ...
  G vector (1/distance) = 0.11994058
  grid = 4 4 4
  stencil order = 5
  estimated absolute RMS force accuracy = 0.23648567
  estimated relative force accuracy = 0.00071216958
  3d grid and FFT values/proc = 294 4
Generated 28 of 28 mixed pair_coeff terms from sixthpower/sixthpower mixing rule
Step          Temp          PotEng         E_vdwl         E_coul         E_bond        E_angle        E_dihed        E_impro        Density         Volume
16800112   338.49701      7687.3243     -1165.7422      2492.1658      2152.8644      11099.633     -5661.8299     -57.695156      1.0442605      48527.081
Averages over the last 31 of 62 rows, steps 17420000 to 18000112:
Temp PotEng E_vdwl E_coul E_bond E_angle E_dihed E_impro Density Volume
319.704 7365.19 -1179.12 2496.59 2055.72 10902.3 -5683.09 -54.7204 1.04487 48499.6
Loop time of 3987.41 on 24 procs for 1200000 steps with 5010 atoms

unfix           fNPT
unfix           fMOM
next            a
jump            SELF loop
variable        a loop 26
variable        b equal 600-20*($a-1)
variable        b equal 600-20*(16-1)
fix             fMOM all momentum 100 linear 1 1 1 angular
fix             fNPT all npt temp $b $b $(100.0*dt) iso 1 1 $(100.0*dt)
fix             fNPT all npt temp 300 $b $(100.0*dt) iso 1 1 $(100.0*dt)
fix             fNPT all npt temp 300 300 $(100.0*dt) iso 1 1 $(100.0*dt)
fix             fNPT all npt temp 300 300 25 iso 1 1 $(100.0*dt)
fix             fNPT all npt temp 300 300 25 iso 1 1 25
run             1200000
PPPM initialization ...
  G vector (1/distance) = 0.11995094
  grid = 4 4 4
  stencil order = 5
  estimated absolute RMS force accuracy = 0.23646978
  estimated relative force accuracy = 0.0007121217
  3d grid and FFT values/proc = 294 4
Generated 28 of 28 mixed pair_coeff terms from sixthpower/sixthpower mixing rule
Step          Temp          PotEng         E_vdwl         E_coul         E_bond        E_angle        E_dihed        E_impro        Density         Volume
18000112   319.33112      7385.1062     -1158.3225      2499.6659      2059.9789      10857.847     -5650.6982     -50.179167      1.0446389      48509.504
Averages over the last 31 of 62 rows, steps 18620000 to 19200112:
Temp PotEng E_vdwl E_coul E_bond E_angle E_dihed E_impro Density Volume
299.944 7014.89 -1238.72 2495.15 1923.95 10771.5 -5712.5 -50.9638 1.04987 48268.5
Loop time of 4003 on 24 procs for 1200000 steps with 5010 atoms

unfix           fNPT
unfix           fMOM
next            a
jump            SELF loop
variable        a loop 26
variable        b equal 600-20*($a-1)
variable        b equal 600-20*(17-1)
fix             fMOM all momentum 100 linear 1 1 1 angular
fix             fNPT all npt temp $b $b $(100.0*dt) iso 1 1 $(100.0*dt)
fix             fNPT all npt temp 280 $b $(100.0*dt) iso 1 1 $(100.0*dt)
fix             fNPT all npt temp 280 280 $(100.0*dt) iso 1 1 $(100.0*dt)
fix             fNPT all npt temp 280 280 25 iso 1 1 $(100.0*dt)
fix             fNPT all npt temp 280 280 25 iso 1 1 25
run             1200000
PPPM initialization ...
  G vector (1/distance) = 0.11986861
  grid = 4 4 4
  stencil order = 5
  estimated absolute RMS force accuracy = 0.23659603
  estimated relative force accuracy = 0.00071250191
  3d grid and FFT values/proc = 294 4
Generated 28 of 28 mixed pair_coeff terms from sixthpower/sixthpower mixing rule
Step          Temp          PotEng         E_vdwl         E_coul         E_bond        E_angle        E_dihed        E_impro        Density         Volume
19200112   303.7972       6999.3909     -1211.7222      2500.2537      1929.767       10795.613     -5789.0962     -52.706054      1.0416333      48649.475
Averages over the last 31 of 62 rows, steps 19820000 to 20400112:
Temp PotEng E_vdwl E_coul E_bond E_angle E_dihed E_impro Density Volume
281.505 6682.18 -1271.36 2484.47 1790.88 10634.1 -5731.21 -51.8916 1.05693 47945.6
Loop time of 4030.11 on 24 procs for 1200000 steps with 5010 atoms

unfix           fNPT
unfix           fMOM
next            a
jump            SELF loop
variable        a loop 26
variable        b equal 600-20*($a-1)
variable        b equal 600-20*(18-1)
fix             fMOM all momentum 100 linear 1 1 1 angular
fix             fNPT all npt temp $b $b $(100.0*dt) iso 1 1 $(100.0*dt)
fix             fNPT all npt temp 260 $b $(100.0*dt) iso 1 1 $(100.0*dt)
fix             fNPT all npt temp 260 260 $(100.0*dt) iso 1 1 $(100.0*dt)
fix             fNPT all npt temp 260 260 25 iso 1 1 $(100.0*dt)
fix             fNPT all npt temp 260 260 25 iso 1 1 25
run             1200000
PPPM initialization ...
  G vector (1/distance) = 0.12038876
  grid = 4 4 4
  stencil order = 5
  estimated absolute RMS force accuracy = 0.23579218
  estimated relative force accuracy = 0.00071008116
  3d grid and FFT values/proc = 294 4
Generated 28 of 28 mixed pair_coeff terms from sixthpower/sixthpower mixing rule
Step          Temp          PotEng         E_vdwl         E_coul         E_bond        E_angle        E_dihed        E_impro        Density         Volume
20400112   280.28792      6631.1345     -1266.5671      2487.3802      1782.3485      10544.266     -5693.0578     -45.622852      1.0607512      47772.664
Averages over the last 31 of 62 rows, steps 21020000 to 21600112:
Temp PotEng E_vdwl E_coul E_bond E_angle E_dihed E_impro Density Volume
259.565 6340.78 -1334.75 2484.6 1692.8 10469.7 -5743.87 -49.915 1.06637 47521.7
Loop time of 4008.37 on 24 procs for 1200000 steps with 5010 atoms

unfix           fNPT
unfix           fMOM
next            a
jump            SELF loop
variable        a loop 26
variable        b equal 600-20*($a-1)
variable        b equal 600-20*(19-1)
fix             fMOM all momentum 100 linear 1 1 1 angular
fix             fNPT all npt temp $b $b $(100.0*dt) iso 1 1 $(100.0*dt)
fix             fNPT all npt temp 240 $b $(100.0*dt) iso 1 1 $(100.0*dt)
fix             fNPT all npt temp 240 240 $(100.0*dt) iso 1 1 $(100.0*dt)
fix             fNPT all npt temp 240 240 25 iso 1 1 $(100.0*dt)
fix             fNPT all npt temp 240 240 25 iso 1 1 25
run             1200000
PPPM initialization ...
  G vector (1/distance) = 0.1205032
  grid = 4 4 4
  stencil order = 5
  estimated absolute RMS force accuracy = 0.23561337
  estimated relative force accuracy = 0.00070954266
  3d grid and FFT values/proc = 294 4
Generated 28 of 28 mixed pair_coeff terms from sixthpower/sixthpower mixing rule
Step          Temp          PotEng         E_vdwl         E_coul         E_bond        E_angle        E_dihed        E_impro        Density         Volume
21600112   263.72153      6309.7608     -1309.2375      2481.7049      1674.166       10453.198     -5759.6186     -51.354836      1.0649987      47582.136
Averages over the last 31 of 62 rows, steps 22220000 to 22800112:
Temp PotEng E_vdwl E_coul E_bond E_angle E_dihed E_impro Density Volume
239.985 6023.63 -1368.37 2487.82 1570.54 10343.6 -5780.75 -50.0619 1.07208 47268.7
Loop time of 4006.48 on 24 procs for 1200000 steps with 5010 atoms

unfix           fNPT
unfix           fMOM
next            a
jump            SELF loop
variable        a loop 26
variable        b equal 600-20*($a-1)
variable        b equal 600-20*(20-1)
fix             fMOM all momentum 100 linear 1 1 1 angular
fix             fNPT all npt temp $b $b $(100.0*dt) iso 1 1 $(100.0*dt)
fix             fNPT all npt temp 220 $b $(100.0*dt) iso 1 1 $(100.0*dt)
fix             fNPT all npt temp 220 220 $(100.0*dt) iso 1 1 $(100.0*dt)
fix             fNPT all npt temp 220 220 25 iso 1 1 $(100.0*dt)
fix             fNPT all npt temp 220 220 25 iso 1 1 25
run             1200000
PPPM initialization ...
  G vector (1/distance) = 0.12056993
  grid = 4 4 4
  stencil order = 5
  estimated absolute RMS force accuracy = 0.23550877
  estimated relative force accuracy = 0.00070922767
  3d grid and FFT values/proc = 294 4
Generated 28 of 28 mixed pair_coeff terms from sixthpower/sixthpower mixing rule
Step          Temp          PotEng         E_vdwl         E_coul         E_bond        E_angle        E_dihed        E_impro        Density         Volume
22800112   240.14867      6019.8442     -1358.7303      2503.1247      1575.9214      10338.493     -5806.1977     -52.750083      1.0674824      47471.425
Averages over the last 31 of 62 rows, steps 23420000 to 24000112:
Temp PotEng E_vdwl E_coul E_bond E_angle E_dihed E_impro Density Volume
220.056 5724.74 -1397.09 2488.51 1463.56 10183.3 -5784.91 -48.895 1.07588 47101.6
Loop time of 4031.86 on 24 procs for 1200000 steps with 5010 atoms

unfix           fNPT
unfix           fMOM
next            a
jump            SELF loop
variable        a loop 26
variable        b equal 600-20*($a-1)
variable        b equal 600-20*(21-1)
fix             fMOM all momentum 100 linear 1 1 1 angular
fix             fNPT all npt temp $b $b $(100.0*dt) iso 1 1 $(100.0*dt)
fix             fNPT all npt temp 200 $b $(100.0*dt) iso 1 1 $(100.0*dt)
fix             fNPT all npt temp 200 200 $(100.0*dt) iso 1 1 $(100.0*dt)
fix             fNPT all npt temp 200 200 25 iso 1 1 $(100.0*dt)
fix             fNPT all npt temp 200 200 25 iso 1 1 25
run             1200000
PPPM initialization ...
  G vector (1/distance) = 0.12078784
  grid = 4 4 4
  stencil order = 5
  estimated absolute RMS force accuracy = 0.23516556
  estimated relative force accuracy = 0.00070819411
  3d grid and FFT values/proc = 294 4
Generated 28 of 28 mixed pair_coeff terms from sixthpower/sixthpower mixing rule
Step          Temp          PotEng         E_vdwl         E_coul         E_bond        E_angle        E_dihed        E_impro        Density         Volume
24000112   218.24881      5750.6484     -1418.266       2493.9176      1444.2273      10204.532     -5744.8364     -47.230529      1.0756285      47111.91
Averages over the last 21 of 42 rows, steps 24420000 to 24820000:
Temp PotEng E_vdwl E_coul E_bond E_angle E_dihed E_impro Density Volume
199.779 5431 -1432.92 2482.76 1359.08 10041.4 -5789.27 -48.1012 1.07916 46958.3
