LAMMPS (22 Dec 2022)
# PREREQUISITES:
#
#     You must use moltemplate.sh to create 3 files:
#        system.data  system.in.init  system.in.settings
#     (Follow the instructions in README_setup.sh,
#      or run the file as a script using ./README_setup.sh)

# ------------------------------- Initialization Section --------------------

units real
atom_style full
pair_style lj/class2/coul/long 10.0 10.0
bond_style class2
angle_style class2
dihedral_style class2
improper_style class2
kspace_style pppm/cg 0.001

pair_modify     mix sixthpower tail yes
special_bonds   lj/coul 0 0 1

# ------------------------------- Atom Definition Section -------------------

read_data       "reacted_lmp.data"
Reading data file ...
  orthogonal box = (5.9030791 5.9030791 5.9030791) to (43.568975 43.568975 43.568975)
  reading atoms ...
  4952 atoms
  reading velocities ...
  4952 velocities
  scanning bonds ...
  scanning angles ...
  scanning dihedrals ...
  scanning impropers ...
  reading bonds ...
  5336 bonds
  reading angles ...
  10920 angles
  reading dihedrals ...
  17852 dihedrals
  reading impropers ...
  6890 impropers
Finding 1-2 1-3 1-4 neighbors ...
     4 = max # of 1-2 neighbors
     9 = max # of 1-3 neighbors
    13 = max # of special neighbors

include calc.pram

# Masses

mass		 1    12.01115  # c
mass		 2    12.01115  # c1
mass		 3    12.01115  # c_1
mass		 4     1.00797  # h
mass		 5     1.00797  # hc
mass		 6    15.99940  # o3e
mass		 7    15.99940  # o_1
mass		 8    15.99940  # o_2
mass		 9    15.99940  # oc
mass		10    15.99940  # oh

# Potentials

pair_coeff	 1  1    0.05400    4.01000  # c,c
pair_coeff	 2  2    0.05400    4.01000  # c1,c1
pair_coeff	 3  3    0.12000    3.81000  # c_1,c_1
pair_coeff	 4  4    0.02000    2.99500  # h,h
pair_coeff	 5  5    0.02000    2.99500  # hc,hc
pair_coeff	 6  6    0.24000    3.53500  # o3e,o3e
pair_coeff	 7  7    0.26700    3.30000  # o_1,o_1
pair_coeff	 8  8    0.24000    3.42000  # o_2,o_2
pair_coeff	 9  9    0.24000    3.53500  # oc,oc
pair_coeff	10 10    0.24000    3.53500  # oh,oh

# Bond Coeffs

bond_coeff	 1    1.53000  299.67000 -501.77000  679.81000  # c,c
bond_coeff	 2    1.53000  299.67000 -501.77000  679.81000  # c,c1
bond_coeff	 3    1.10100  345.00000 -691.89000  844.60000  # c,hc
bond_coeff	 4    1.43000  326.72730 -608.53060  689.03330  # c,o_2
bond_coeff	 5    1.53000  299.67000 -501.77000  679.81000  # c1,c1
bond_coeff	 6    1.52020  253.70670 -423.03700  396.90000  # c1,c_1
bond_coeff	 7    1.10100  345.00000 -691.89000  844.60000  # c1,hc
bond_coeff	 8    1.42000  400.39540 -835.19510 1313.01420  # c1,o3e
bond_coeff	 9    1.42000  400.39540 -835.19510 1313.01420  # c1,oc
bond_coeff	10    1.42000  400.39540 -835.19510 1313.01420  # c1,oh
bond_coeff	11    1.20200  851.14030 -1918.48820 2160.76590  # c_1,o_1
bond_coeff	12    1.36830  367.14810 -794.79080 1055.23190  # c_1,o_2
bond_coeff	13    0.96000  493.84800    0.00000    0.00000  # h,oh

# Angle Coeffs

angle_coeff	 1  112.67000   39.51600   -7.44300   -9.55830  # c,c,c
angle_coeff	 2  112.67000   39.51600   -7.44300   -9.55830  # c,c,c1
angle_coeff	 3  110.77000   41.45300  -10.60400    5.12900  # c,c,hc
angle_coeff	 4  112.67000   39.51600   -7.44300   -9.55830  # c,c1,c
angle_coeff	 5  112.67000   39.51600   -7.44300   -9.55830  # c,c1,c1
angle_coeff	 6  108.52950   51.97470   -9.48510  -10.99850  # c,c1,c_1
angle_coeff	 7  110.77000   41.45300  -10.60400    5.12900  # c,c1,hc
angle_coeff	 8  111.27000   54.53810   -8.36420  -13.08380  # c,c1,o3e
angle_coeff	 9  111.27000   54.53810   -8.36420  -13.08380  # c,c1,oc
angle_coeff	10  111.27000   54.53810   -8.36420  -13.08380  # c,c1,oh
angle_coeff	11  113.28800   61.28680  -28.97860    7.99290  # c,o_2,c_1
angle_coeff	12  112.67000   39.51600   -7.44300   -9.55830  # c1,c,c1
angle_coeff	13  110.77000   41.45300  -10.60400    5.12900  # c1,c,hc
angle_coeff	14  107.41000   63.39070  -13.45130    1.66500  # c1,c,o_2
angle_coeff	15  110.77000   41.45300  -10.60400    5.12900  # c1,c1,hc
angle_coeff	16  111.27000   54.53810   -8.36420  -13.08380  # c1,c1,o3e
angle_coeff	17  111.27000   54.53810   -8.36420  -13.08380  # c1,c1,oc
angle_coeff	18  111.27000   54.53810   -8.36420  -13.08380  # c1,c1,oh
angle_coeff	19  123.14510   55.54310  -17.21230    0.13480  # c1,c_1,o_1
angle_coeff	20  100.31820   38.86310   -3.83230   -7.98020  # c1,c_1,o_2
angle_coeff	21  104.50000   35.74540  -10.00670   -6.27290  # c1,o3e,c1
angle_coeff	22  104.50000   35.74540  -10.00670   -6.27290  # c1,oc,c1
angle_coeff	23  109.00000   58.50000    0.00000    0.00000  # c1,oh,h
angle_coeff	24  107.73360   40.60990  -28.81210    0.00000  # c_1,c1,hc
angle_coeff	25  107.66000   39.64100  -12.92100   -2.43180  # hc,c,hc
angle_coeff	26  107.68800   65.48010  -10.34980    5.88660  # hc,c,o_2
angle_coeff	27  108.72800   58.54460  -10.80880  -12.40060  # hc,c1,o3e
angle_coeff	28  108.72800   58.54460  -10.80880  -12.40060  # hc,c1,oc
angle_coeff	29  108.72800   58.54460  -10.80880  -12.40060  # hc,c1,oh
angle_coeff	30  120.79700   95.34460  -32.28690    6.37780  # o_1,c_1,o_2

# BondBond Coeffs

angle_coeff	 1 bb    0.00000    1.53000    1.53000  # c,c,c
angle_coeff	 2 bb    0.00000    1.53000    1.53000  # c,c,c1
angle_coeff	 3 bb    3.38720    1.53000    1.10100  # c,c,hc
angle_coeff	 4 bb    0.00000    1.53000    1.53000  # c,c1,c
angle_coeff	 5 bb    0.00000    1.53000    1.53000  # c,c1,c1
angle_coeff	 6 bb    5.41990    1.53000    1.52020  # c,c1,c_1
angle_coeff	 7 bb    3.38720    1.53000    1.10100  # c,c1,hc
angle_coeff	 8 bb   11.43180    1.53000    1.42000  # c,c1,o3e
angle_coeff	 9 bb   11.43180    1.53000    1.42000  # c,c1,oc
angle_coeff	10 bb   11.43180    1.53000    1.42000  # c,c1,oh
angle_coeff	11 bb   45.45030    1.43000    1.36830  # c,o_2,c_1
angle_coeff	12 bb    0.00000    1.53000    1.53000  # c1,c,c1
angle_coeff	13 bb    3.38720    1.53000    1.10100  # c1,c,hc
angle_coeff	14 bb   23.26470    1.53000    1.43000  # c1,c,o_2
angle_coeff	15 bb    3.38720    1.53000    1.10100  # c1,c1,hc
angle_coeff	16 bb   11.43180    1.53000    1.42000  # c1,c1,o3e
angle_coeff	17 bb   11.43180    1.53000    1.42000  # c1,c1,oc
angle_coeff	18 bb   11.43180    1.53000    1.42000  # c1,c1,oh
angle_coeff	19 bb   46.06850    1.52020    1.20200  # c1,c_1,o_1
angle_coeff	20 bb   19.10690    1.52020    1.36830  # c1,c_1,o_2
angle_coeff	21 bb   -7.11310    1.42000    1.42000  # c1,o3e,c1
angle_coeff	22 bb   -7.11310    1.42000    1.42000  # c1,oc,c1
angle_coeff	23 bb    0.00000    1.42000    0.96000  # c1,oh,h
angle_coeff	24 bb    0.71150    1.52020    1.10100  # c_1,c1,hc
angle_coeff	25 bb    5.33160    1.10100    1.10100  # hc,c,hc
angle_coeff	26 bb    5.64540    1.10100    1.43000  # hc,c,o_2
angle_coeff	27 bb   23.19790    1.10100    1.42000  # hc,c1,o3e
angle_coeff	28 bb   23.19790    1.10100    1.42000  # hc,c1,oc
angle_coeff	29 bb   23.19790    1.10100    1.42000  # hc,c1,oh
angle_coeff	30 bb  121.48800    1.20200    1.36830  # o_1,c_1,o_2

# BondAngle Coeffs

angle_coeff	 1 ba    8.01600    8.01600    1.53000    1.53000  # c,c,c
angle_coeff	 2 ba    8.01600    8.01600    1.53000    1.53000  # c,c,c1
angle_coeff	 3 ba   11.42100   20.75400    1.53000    1.10100  # c,c,hc
angle_coeff	 4 ba    8.01600    8.01600    1.53000    1.53000  # c,c1,c
angle_coeff	 5 ba    8.01600    8.01600    1.53000    1.53000  # c,c1,c1
angle_coeff	 6 ba   15.87580   18.16780    1.53000    1.52020  # c,c1,c_1
angle_coeff	 7 ba   11.42100   20.75400    1.53000    1.10100  # c,c1,hc
angle_coeff	 8 ba    2.68680   20.40330    1.53000    1.42000  # c,c1,o3e
angle_coeff	 9 ba    2.68680   20.40330    1.53000    1.42000  # c,c1,oc
angle_coeff	10 ba    2.68680   20.40330    1.53000    1.42000  # c,c1,oh
angle_coeff	11 ba   46.46080   41.91160    1.43000    1.36830  # c,o_2,c_1
angle_coeff	12 ba    8.01600    8.01600    1.53000    1.53000  # c1,c,c1
angle_coeff	13 ba   20.75400   11.42100    1.53000    1.10100  # c1,c,hc
angle_coeff	14 ba   23.39200   47.94870    1.53000    1.43000  # c1,c,o_2
angle_coeff	15 ba   20.75400   11.42100    1.53000    1.10100  # c1,c1,hc
angle_coeff	16 ba    2.68680   20.40330    1.53000    1.42000  # c1,c1,o3e
angle_coeff	17 ba    2.68680   20.40330    1.53000    1.42000  # c1,c1,oc
angle_coeff	18 ba    2.68680   20.40330    1.53000    1.42000  # c1,c1,oh
angle_coeff	19 ba   37.12980   34.99820    1.52020    1.20200  # c1,c_1,o_1
angle_coeff	20 ba    1.34350    4.69780    1.52020    1.36830  # c1,c_1,o_2
angle_coeff	21 ba   -2.81120   -2.81120    1.42000    1.42000  # c1,o3e,c1
angle_coeff	22 ba   -2.81120   -2.81120    1.42000    1.42000  # c1,oc,c1
angle_coeff	23 ba    0.00000    0.00000    1.42000    0.96000  # c1,oh,h
angle_coeff	24 ba   12.46320    9.17650    1.52020    1.10100  # c_1,c1,hc
angle_coeff	25 ba   18.10300   18.10300    1.10100    1.10100  # hc,c,hc
angle_coeff	26 ba    8.68640   57.49750    1.10100    1.43000  # hc,c,o_2
angle_coeff	27 ba    4.61890   55.32700    1.10100    1.42000  # hc,c1,o3e
angle_coeff	28 ba    4.61890   55.32700    1.10100    1.42000  # hc,c1,oc
angle_coeff	29 ba    4.61890   55.32700    1.10100    1.42000  # hc,c1,oh
angle_coeff	30 ba   76.26140   71.87610    1.20200    1.36830  # o_1,c_1,o_2

# Dihedral Coeffs

dihedral_coeff	 1    0.00000    0.00000    0.05140    0.00000   -0.14300    0.00000  # c,c,c,c1
dihedral_coeff	 2    0.00000    0.00000    0.03160    0.00000   -0.16810    0.00000  # c,c,c,hc
dihedral_coeff	 3    0.00000    0.00000    0.05140    0.00000   -0.14300    0.00000  # c,c,c1,c
dihedral_coeff	 4    0.00000    0.00000    0.05140    0.00000   -0.14300    0.00000  # c,c,c1,c1
dihedral_coeff	 5    0.09720    0.00000    0.07220    0.00000   -0.25810    0.00000  # c,c,c1,c_1
dihedral_coeff	 6    0.00000    0.00000    0.03160    0.00000   -0.16810    0.00000  # c,c,c1,hc
dihedral_coeff	 7    0.71370    0.00000    0.26600    0.00000   -0.25450    0.00000  # c,c,c1,o3e
dihedral_coeff	 8    0.71370    0.00000    0.26600    0.00000   -0.25450    0.00000  # c,c,c1,oc
dihedral_coeff	 9    0.00000    0.00000    0.05140    0.00000   -0.14300    0.00000  # c,c1,c,c1
dihedral_coeff	10    0.00000    0.00000    0.03160    0.00000   -0.16810    0.00000  # c,c1,c,hc
dihedral_coeff	11    0.00000    0.00000    0.00000    0.00000   -0.25000    0.00000  # c,c1,c,o_2
dihedral_coeff	12    0.00000    0.00000    0.05140    0.00000   -0.14300    0.00000  # c,c1,c1,c
dihedral_coeff	13    0.00000    0.00000    0.03160    0.00000   -0.16810    0.00000  # c,c1,c1,hc
dihedral_coeff	14    0.71370    0.00000    0.26600    0.00000   -0.25450    0.00000  # c,c1,c1,o3e
dihedral_coeff	15    0.71370    0.00000    0.26600    0.00000   -0.25450    0.00000  # c,c1,c1,oc
dihedral_coeff	16    0.71370    0.00000    0.26600    0.00000   -0.25450    0.00000  # c,c1,c1,oh
dihedral_coeff	17    0.04420    0.00000    0.02920    0.00000    0.05620    0.00000  # c,c1,c_1,o_1
dihedral_coeff	18    1.83410    0.00000    2.06030    0.00000   -0.01950    0.00000  # c,c1,c_1,o_2
dihedral_coeff	19   -0.52030    0.00000   -0.30280    0.00000   -0.34500    0.00000  # c,c1,o3e,c1
dihedral_coeff	20   -0.52030    0.00000   -0.30280    0.00000   -0.34500    0.00000  # c,c1,oc,c1
dihedral_coeff	21    0.00000    0.00000    0.00000    0.00000    0.13000  180.00000  # c,c1,oh,h
dihedral_coeff	22   -2.55940    0.00000    2.20130    0.00000    0.03250    0.00000  # c,o_2,c_1,c1
dihedral_coeff	23    0.00000    0.00000    2.20890    0.00000    0.00000    0.00000  # c,o_2,c_1,o_1
dihedral_coeff	24    0.00000    0.00000    0.05140    0.00000   -0.14300    0.00000  # c1,c,c,c1
dihedral_coeff	25    0.00000    0.00000    0.03160    0.00000   -0.16810    0.00000  # c1,c,c,hc
dihedral_coeff	26    0.00000    0.00000    0.05140    0.00000   -0.14300    0.00000  # c1,c,c1,c1
dihedral_coeff	27    0.09720    0.00000    0.07220    0.00000   -0.25810    0.00000  # c1,c,c1,c_1
dihedral_coeff	28    0.00000    0.00000    0.03160    0.00000   -0.16810    0.00000  # c1,c,c1,hc
dihedral_coeff	29    0.71370    0.00000    0.26600    0.00000   -0.25450    0.00000  # c1,c,c1,o3e
dihedral_coeff	30    0.71370    0.00000    0.26600    0.00000   -0.25450    0.00000  # c1,c,c1,oc
dihedral_coeff	31    0.71370    0.00000    0.26600    0.00000   -0.25450    0.00000  # c1,c,c1,oh
dihedral_coeff	32    0.00000    0.00000    0.00000    0.00000   -0.19320    0.00000  # c1,c,o_2,c_1
dihedral_coeff	33    0.00000    0.00000    0.03160    0.00000   -0.16810    0.00000  # c1,c1,c,hc
dihedral_coeff	34   -0.52030    0.00000   -0.30280    0.00000   -0.34500    0.00000  # c1,c1,oc,c1
dihedral_coeff	35    0.00000    0.00000    0.00000    0.00000    0.13000  180.00000  # c1,c1,oh,h
dihedral_coeff	36    0.53020    0.00000    0.00000    0.00000   -0.39660    0.00000  # c1,o3e,c1,hc
dihedral_coeff	37    0.53020    0.00000    0.00000    0.00000   -0.39660    0.00000  # c1,oc,c1,hc
dihedral_coeff	38   -0.02280    0.00000    0.02800    0.00000   -0.18630    0.00000  # c_1,c1,c,hc
dihedral_coeff	39    0.00000    0.00000    0.00000    0.00000   -0.19320    0.00000  # c_1,o_2,c,hc
dihedral_coeff	40    0.00000    0.00000    0.00000    0.00000    0.13000  180.00000  # h,oh,c1,hc
dihedral_coeff	41   -0.14320    0.00000    0.06170    0.00000   -0.10830    0.00000  # hc,c,c,hc
dihedral_coeff	42   -0.14320    0.00000    0.06170    0.00000   -0.10830    0.00000  # hc,c,c1,hc
dihedral_coeff	43   -0.14350    0.00000    0.25300    0.00000   -0.09050    0.00000  # hc,c,c1,o3e
dihedral_coeff	44   -0.14350    0.00000    0.25300    0.00000   -0.09050    0.00000  # hc,c,c1,oc
dihedral_coeff	45   -0.14350    0.00000    0.25300    0.00000   -0.09050    0.00000  # hc,c,c1,oh
dihedral_coeff	46    0.00000    0.00000    0.00000    0.00000   -0.25000    0.00000  # hc,c1,c,o_2
dihedral_coeff	47   -0.14320    0.00000    0.06170    0.00000   -0.10830    0.00000  # hc,c1,c1,hc
dihedral_coeff	48   -0.14350    0.00000    0.25300    0.00000   -0.09050    0.00000  # hc,c1,c1,o3e
dihedral_coeff	49   -0.14350    0.00000    0.25300    0.00000   -0.09050    0.00000  # hc,c1,c1,oc
dihedral_coeff	50   -0.14350    0.00000    0.25300    0.00000   -0.09050    0.00000  # hc,c1,c1,oh
dihedral_coeff	51   -0.18040    0.00000    0.00120    0.00000    0.03710    0.00000  # hc,c1,c_1,o_1
dihedral_coeff	52   -0.63590    0.00000    1.48070    0.00000   -0.04380    0.00000  # hc,c1,c_1,o_2
dihedral_coeff	53   -0.18200    0.00000   -0.10840    0.00000   -0.70470    0.00000  # oc,c1,c1,oc
dihedral_coeff	54   -0.18200    0.00000   -0.10840    0.00000   -0.70470    0.00000  # oc,c1,c1,oh

# MiddleBondTorsion Coeffs

dihedral_coeff	 1 mbt  -17.78700   -7.18770    0.00000    1.53000  # c,c,c,c1
dihedral_coeff	 2 mbt  -14.87900   -3.65810   -0.31380    1.53000  # c,c,c,hc
dihedral_coeff	 3 mbt  -17.78700   -7.18770    0.00000    1.53000  # c,c,c1,c
dihedral_coeff	 4 mbt  -17.78700   -7.18770    0.00000    1.53000  # c,c,c1,c1
dihedral_coeff	 5 mbt   -1.59450    0.22670   -0.69110    1.53000  # c,c,c1,c_1
dihedral_coeff	 6 mbt  -14.87900   -3.65810   -0.31380    1.53000  # c,c,c1,hc
dihedral_coeff	 7 mbt  -21.88420   -7.67640   -0.68680    1.53000  # c,c,c1,o3e
dihedral_coeff	 8 mbt  -21.88420   -7.67640   -0.68680    1.53000  # c,c,c1,oc
dihedral_coeff	 9 mbt  -17.78700   -7.18770    0.00000    1.53000  # c,c1,c,c1
dihedral_coeff	10 mbt  -14.87900   -3.65810   -0.31380    1.53000  # c,c1,c,hc
dihedral_coeff	11 mbt    0.00000    0.00000    0.00000    1.53000  # c,c1,c,o_2
dihedral_coeff	12 mbt  -17.78700   -7.18770    0.00000    1.53000  # c,c1,c1,c
dihedral_coeff	13 mbt  -14.87900   -3.65810   -0.31380    1.53000  # c,c1,c1,hc
dihedral_coeff	14 mbt  -21.88420   -7.67640   -0.68680    1.53000  # c,c1,c1,o3e
dihedral_coeff	15 mbt  -21.88420   -7.67640   -0.68680    1.53000  # c,c1,c1,oc
dihedral_coeff	16 mbt  -21.88420   -7.67640   -0.68680    1.53000  # c,c1,c1,oh
dihedral_coeff	17 mbt    0.33880   -0.10960    0.12190    1.52020  # c,c1,c_1,o_1
dihedral_coeff	18 mbt  -17.32800   -5.79000   -3.21140    1.52020  # c,c1,c_1,o_2
dihedral_coeff	19 mbt   -5.92880   -2.70070   -0.31750    1.42000  # c,c1,o3e,c1
dihedral_coeff	20 mbt   -5.92880   -2.70070   -0.31750    1.42000  # c,c1,oc,c1
dihedral_coeff	21 mbt    0.00000    0.00000    0.00000    1.42000  # c,c1,oh,h
dihedral_coeff	22 mbt    1.34450    3.55150   -4.92020    1.36830  # c,o_2,c_1,c1
dihedral_coeff	23 mbt    4.26000    0.00000    0.00000    1.36830  # c,o_2,c_1,o_1
dihedral_coeff	24 mbt  -17.78700   -7.18770    0.00000    1.53000  # c1,c,c,c1
dihedral_coeff	25 mbt  -14.87900   -3.65810   -0.31380    1.53000  # c1,c,c,hc
dihedral_coeff	26 mbt  -17.78700   -7.18770    0.00000    1.53000  # c1,c,c1,c1
dihedral_coeff	27 mbt   -1.59450    0.22670   -0.69110    1.53000  # c1,c,c1,c_1
dihedral_coeff	28 mbt  -14.87900   -3.65810   -0.31380    1.53000  # c1,c,c1,hc
dihedral_coeff	29 mbt  -21.88420   -7.67640   -0.68680    1.53000  # c1,c,c1,o3e
dihedral_coeff	30 mbt  -21.88420   -7.67640   -0.68680    1.53000  # c1,c,c1,oc
dihedral_coeff	31 mbt  -21.88420   -7.67640   -0.68680    1.53000  # c1,c,c1,oh
dihedral_coeff	32 mbt   -5.43500    0.00000    0.00000    1.43000  # c1,c,o_2,c_1
dihedral_coeff	33 mbt  -14.87900   -3.65810   -0.31380    1.53000  # c1,c1,c,hc
dihedral_coeff	34 mbt   -5.92880   -2.70070   -0.31750    1.42000  # c1,c1,oc,c1
dihedral_coeff	35 mbt    0.00000    0.00000    0.00000    1.42000  # c1,c1,oh,h
dihedral_coeff	36 mbt   -6.80070   -4.65460   -1.41010    1.42000  # c1,o3e,c1,hc
dihedral_coeff	37 mbt   -6.80070   -4.65460   -1.41010    1.42000  # c1,oc,c1,hc
dihedral_coeff	38 mbt   -3.50390    1.24580   -0.76100    1.53000  # c_1,c1,c,hc
dihedral_coeff	39 mbt    0.00000    0.00000    0.00000    1.43000  # c_1,o_2,c,hc
dihedral_coeff	40 mbt    0.00000    0.00000    0.00000    1.42000  # h,oh,c1,hc
dihedral_coeff	41 mbt  -14.26100   -0.53220   -0.48640    1.53000  # hc,c,c,hc
dihedral_coeff	42 mbt  -14.26100   -0.53220   -0.48640    1.53000  # hc,c,c1,hc
dihedral_coeff	43 mbt  -16.79750   -1.22960   -0.27500    1.53000  # hc,c,c1,o3e
dihedral_coeff	44 mbt  -16.79750   -1.22960   -0.27500    1.53000  # hc,c,c1,oc
dihedral_coeff	45 mbt  -16.79750   -1.22960   -0.27500    1.53000  # hc,c,c1,oh
dihedral_coeff	46 mbt    0.00000    0.00000    0.00000    1.53000  # hc,c1,c,o_2
dihedral_coeff	47 mbt  -14.26100   -0.53220   -0.48640    1.53000  # hc,c1,c1,hc
dihedral_coeff	48 mbt  -16.79750   -1.22960   -0.27500    1.53000  # hc,c1,c1,o3e
dihedral_coeff	49 mbt  -16.79750   -1.22960   -0.27500    1.53000  # hc,c1,c1,oc
dihedral_coeff	50 mbt  -16.79750   -1.22960   -0.27500    1.53000  # hc,c1,c1,oh
dihedral_coeff	51 mbt    0.23590    0.91390    0.95940    1.52020  # hc,c1,c_1,o_1
dihedral_coeff	52 mbt  -13.76860   -2.59590    1.19340    1.52020  # hc,c1,c_1,o_2
dihedral_coeff	53 mbt  -17.25850   -3.61570   -0.83640    1.53000  # oc,c1,c1,oc
dihedral_coeff	54 mbt  -17.25850   -3.61570   -0.83640    1.53000  # oc,c1,c1,oh

# EndBondTorsion Coeffs

dihedral_coeff	 1 ebt   -0.07320    0.00000    0.00000   -0.07320    0.00000    0.00000    1.53000    1.53000  # c,c,c,c1
dihedral_coeff	 2 ebt    0.08140    0.05910    0.22190    0.24860    0.24220   -0.09250    1.53000    1.10100  # c,c,c,hc
dihedral_coeff	 3 ebt   -0.07320    0.00000    0.00000   -0.07320    0.00000    0.00000    1.53000    1.53000  # c,c,c1,c
dihedral_coeff	 4 ebt   -0.07320    0.00000    0.00000   -0.07320    0.00000    0.00000    1.53000    1.53000  # c,c,c1,c1
dihedral_coeff	 5 ebt    0.00550    0.00600   -0.00090    0.00620   -0.00020    0.00360    1.53000    1.52020  # c,c,c1,c_1
dihedral_coeff	 6 ebt    0.08140    0.05910    0.22190    0.24860    0.24220   -0.09250    1.53000    1.10100  # c,c,c1,hc
dihedral_coeff	 7 ebt   -0.31900    0.44110   -0.71740    1.15380    0.84090   -0.91380    1.53000    1.42000  # c,c,c1,o3e
dihedral_coeff	 8 ebt   -0.31900    0.44110   -0.71740    1.15380    0.84090   -0.91380    1.53000    1.42000  # c,c,c1,oc
dihedral_coeff	 9 ebt   -0.07320    0.00000    0.00000   -0.07320    0.00000    0.00000    1.53000    1.53000  # c,c1,c,c1
dihedral_coeff	10 ebt    0.08140    0.05910    0.22190    0.24860    0.24220   -0.09250    1.53000    1.10100  # c,c1,c,hc
dihedral_coeff	11 ebt    0.00000    0.00000    0.00000    0.00000    0.00000    0.00000    1.53000    1.43000  # c,c1,c,o_2
dihedral_coeff	12 ebt   -0.07320    0.00000    0.00000   -0.07320    0.00000    0.00000    1.53000    1.53000  # c,c1,c1,c
dihedral_coeff	13 ebt    0.08140    0.05910    0.22190    0.24860    0.24220   -0.09250    1.53000    1.10100  # c,c1,c1,hc
dihedral_coeff	14 ebt   -0.31900    0.44110   -0.71740    1.15380    0.84090   -0.91380    1.53000    1.42000  # c,c1,c1,o3e
dihedral_coeff	15 ebt   -0.31900    0.44110   -0.71740    1.15380    0.84090   -0.91380    1.53000    1.42000  # c,c1,c1,oc
dihedral_coeff	16 ebt   -0.31900    0.44110   -0.71740    1.15380    0.84090   -0.91380    1.53000    1.42000  # c,c1,c1,oh
dihedral_coeff	17 ebt   -0.28100    0.08160   -0.15220    0.26540    0.05030    0.10460    1.53000    1.20200  # c,c1,c_1,o_1
dihedral_coeff	18 ebt    0.00000    0.00000    0.00000    0.00000    0.00000    0.00000    1.53000    1.36830  # c,c1,c_1,o_2
dihedral_coeff	19 ebt    0.47410    1.26350    0.55760   -0.24560    1.05170   -0.77950    1.53000    1.42000  # c,c1,o3e,c1
dihedral_coeff	20 ebt    0.47410    1.26350    0.55760   -0.24560    1.05170   -0.77950    1.53000    1.42000  # c,c1,oc,c1
dihedral_coeff	21 ebt    0.00000    0.00000    0.00000    0.00000    0.00000    0.00000    1.53000    0.96000  # c,c1,oh,h
dihedral_coeff	22 ebt    0.00000    0.00000    0.00000    0.00000    0.00000    0.00000    1.43000    1.52020  # c,o_2,c_1,c1
dihedral_coeff	23 ebt    0.00000    0.00000    0.00000    0.00000    0.00000    0.00000    1.43000    1.20200  # c,o_2,c_1,o_1
dihedral_coeff	24 ebt   -0.07320    0.00000    0.00000   -0.07320    0.00000    0.00000    1.53000    1.53000  # c1,c,c,c1
dihedral_coeff	25 ebt    0.24860    0.24220   -0.09250    0.08140    0.05910    0.22190    1.53000    1.10100  # c1,c,c,hc
dihedral_coeff	26 ebt   -0.07320    0.00000    0.00000   -0.07320    0.00000    0.00000    1.53000    1.53000  # c1,c,c1,c1
dihedral_coeff	27 ebt    0.00550    0.00600   -0.00090    0.00620   -0.00020    0.00360    1.53000    1.52020  # c1,c,c1,c_1
dihedral_coeff	28 ebt    0.24860    0.24220   -0.09250    0.08140    0.05910    0.22190    1.53000    1.10100  # c1,c,c1,hc
dihedral_coeff	29 ebt   -0.31900    0.44110   -0.71740    1.15380    0.84090   -0.91380    1.53000    1.42000  # c1,c,c1,o3e
dihedral_coeff	30 ebt   -0.31900    0.44110   -0.71740    1.15380    0.84090   -0.91380    1.53000    1.42000  # c1,c,c1,oc
dihedral_coeff	31 ebt   -0.31900    0.44110   -0.71740    1.15380    0.84090   -0.91380    1.53000    1.42000  # c1,c,c1,oh
dihedral_coeff	32 ebt    0.00000    0.00000    0.00000    0.00000    0.00000    0.00000    1.53000    1.36830  # c1,c,o_2,c_1
dihedral_coeff	33 ebt    0.24860    0.24220   -0.09250    0.08140    0.05910    0.22190    1.53000    1.10100  # c1,c1,c,hc
dihedral_coeff	34 ebt   -0.24560    1.05170   -0.77950    0.47410    1.26350    0.55760    1.53000    1.42000  # c1,c1,oc,c1
dihedral_coeff	35 ebt    0.00000    0.00000    0.00000    0.00000    0.00000    0.00000    1.53000    0.96000  # c1,c1,oh,h
dihedral_coeff	36 ebt   -0.16200    0.15640   -1.14080   -0.60540    1.33390    0.96480    1.42000    1.10100  # c1,o3e,c1,hc
dihedral_coeff	37 ebt   -0.16200    0.15640   -1.14080   -0.60540    1.33390    0.96480    1.42000    1.10100  # c1,oc,c1,hc
dihedral_coeff	38 ebt   -0.02040    0.36280   -0.44260   -0.00970   -0.03150   -0.07550    1.52020    1.10100  # c_1,c1,c,hc
dihedral_coeff	39 ebt    0.00000    0.00000    0.00000    0.00000    0.00000    0.00000    1.36830    1.10100  # c_1,o_2,c,hc
dihedral_coeff	40 ebt    0.00000    0.00000    0.00000    0.00000    0.00000    0.00000    0.96000    1.10100  # h,oh,c1,hc
dihedral_coeff	41 ebt    0.21300    0.31200    0.07770    0.21300    0.31200    0.07770    1.10100    1.10100  # hc,c,c,hc
dihedral_coeff	42 ebt    0.21300    0.31200    0.07770    0.21300    0.31200    0.07770    1.10100    1.10100  # hc,c,c1,hc
dihedral_coeff	43 ebt    0.96810    0.95510    0.04360    0.59030    0.66690    0.85840    1.10100    1.42000  # hc,c,c1,o3e
dihedral_coeff	44 ebt    0.96810    0.95510    0.04360    0.59030    0.66690    0.85840    1.10100    1.42000  # hc,c,c1,oc
dihedral_coeff	45 ebt    0.96810    0.95510    0.04360    0.59030    0.66690    0.85840    1.10100    1.42000  # hc,c,c1,oh
dihedral_coeff	46 ebt    0.00000    0.00000    0.00000    0.00000    0.00000    0.00000    1.10100    1.43000  # hc,c1,c,o_2
dihedral_coeff	47 ebt    0.21300    0.31200    0.07770    0.21300    0.31200    0.07770    1.10100    1.10100  # hc,c1,c1,hc
dihedral_coeff	48 ebt    0.96810    0.95510    0.04360    0.59030    0.66690    0.85840    1.10100    1.42000  # hc,c1,c1,o3e
dihedral_coeff	49 ebt    0.96810    0.95510    0.04360    0.59030    0.66690    0.85840    1.10100    1.42000  # hc,c1,c1,oc
dihedral_coeff	50 ebt    0.96810    0.95510    0.04360    0.59030    0.66690    0.85840    1.10100    1.42000  # hc,c1,c1,oh
dihedral_coeff	51 ebt   -0.22980    0.03540    0.38530    1.21430    0.28310    0.39160    1.10100    1.20200  # hc,c1,c_1,o_1
dihedral_coeff	52 ebt    0.00000    0.00000    0.00000    0.00000    0.00000    0.00000    1.10100    1.36830  # hc,c1,c_1,o_2
dihedral_coeff	53 ebt    1.01650    0.75530   -0.46090    1.01650    0.75530   -0.46090    1.42000    1.42000  # oc,c1,c1,oc
dihedral_coeff	54 ebt    1.01650    0.75530   -0.46090    1.01650    0.75530   -0.46090    1.42000    1.42000  # oc,c1,c1,oh

# AngleTorsion Coeffs

dihedral_coeff	 1 at    0.38860   -0.31390    0.13890    0.38860   -0.31390    0.13890  112.67000  112.67000  # c,c,c,c1
dihedral_coeff	 2 at    0.31130    0.45160   -0.19880   -0.24540    0.00000   -0.11360  112.67000  110.77000  # c,c,c,hc
dihedral_coeff	 3 at    0.38860   -0.31390    0.13890    0.38860   -0.31390    0.13890  112.67000  112.67000  # c,c,c1,c
dihedral_coeff	 4 at    0.38860   -0.31390    0.13890    0.38860   -0.31390    0.13890  112.67000  112.67000  # c,c,c1,c1
dihedral_coeff	 5 at    0.05150   -0.06740   -0.04740   -0.26070    0.32030   -0.22830  112.67000  108.52950  # c,c,c1,c_1
dihedral_coeff	 6 at    0.31130    0.45160   -0.19880   -0.24540    0.00000   -0.11360  112.67000  110.77000  # c,c,c1,hc
dihedral_coeff	 7 at    0.56230   -0.30410   -0.40150    0.96720   -0.75660   -1.23310  112.67000  111.27000  # c,c,c1,o3e
dihedral_coeff	 8 at    0.56230   -0.30410   -0.40150    0.96720   -0.75660   -1.23310  112.67000  111.27000  # c,c,c1,oc
dihedral_coeff	 9 at    0.38860   -0.31390    0.13890    0.38860   -0.31390    0.13890  112.67000  112.67000  # c,c1,c,c1
dihedral_coeff	10 at    0.31130    0.45160   -0.19880   -0.24540    0.00000   -0.11360  112.67000  110.77000  # c,c1,c,hc
dihedral_coeff	11 at    0.00000    0.00000    0.00000    0.00000    0.00000    0.00000  112.67000  107.41000  # c,c1,c,o_2
dihedral_coeff	12 at    0.38860   -0.31390    0.13890    0.38860   -0.31390    0.13890  112.67000  112.67000  # c,c1,c1,c
dihedral_coeff	13 at    0.31130    0.45160   -0.19880   -0.24540    0.00000   -0.11360  112.67000  110.77000  # c,c1,c1,hc
dihedral_coeff	14 at    0.56230   -0.30410   -0.40150    0.96720   -0.75660   -1.23310  112.67000  111.27000  # c,c1,c1,o3e
dihedral_coeff	15 at    0.56230   -0.30410   -0.40150    0.96720   -0.75660   -1.23310  112.67000  111.27000  # c,c1,c1,oc
dihedral_coeff	16 at    0.56230   -0.30410   -0.40150    0.96720   -0.75660   -1.23310  112.67000  111.27000  # c,c1,c1,oh
dihedral_coeff	17 at    0.67500    0.59650    0.67250    0.08850   -1.37030   -0.54520  108.52950  123.14510  # c,c1,c_1,o_1
dihedral_coeff	18 at    0.00000    0.00000    0.00000    0.00000    0.00000    0.00000  108.52950  100.31820  # c,c1,c_1,o_2
dihedral_coeff	19 at    0.56760    0.94500    0.07030   -2.74660    1.48770   -0.89550  111.27000  104.50000  # c,c1,o3e,c1
dihedral_coeff	20 at    0.56760    0.94500    0.07030   -2.74660    1.48770   -0.89550  111.27000  104.50000  # c,c1,oc,c1
dihedral_coeff	21 at    0.00000    0.00000    0.00000    0.00000    0.00000    0.00000  111.27000  109.00000  # c,c1,oh,h
dihedral_coeff	22 at    0.00000    0.00000    0.00000    0.00000    0.00000    0.00000  113.28800  100.31820  # c,o_2,c_1,c1
dihedral_coeff	23 at    0.00000    0.00000    0.00000    0.00000    0.00000    0.00000  113.28800  120.79700  # c,o_2,c_1,o_1
dihedral_coeff	24 at    0.38860   -0.31390    0.13890    0.38860   -0.31390    0.13890  112.67000  112.67000  # c1,c,c,c1
dihedral_coeff	25 at   -0.24540    0.00000   -0.11360    0.31130    0.45160   -0.19880  112.67000  110.77000  # c1,c,c,hc
dihedral_coeff	26 at    0.38860   -0.31390    0.13890    0.38860   -0.31390    0.13890  112.67000  112.67000  # c1,c,c1,c1
dihedral_coeff	27 at    0.05150   -0.06740   -0.04740   -0.26070    0.32030   -0.22830  112.67000  108.52950  # c1,c,c1,c_1
dihedral_coeff	28 at   -0.24540    0.00000   -0.11360    0.31130    0.45160   -0.19880  112.67000  110.77000  # c1,c,c1,hc
dihedral_coeff	29 at    0.56230   -0.30410   -0.40150    0.96720   -0.75660   -1.23310  112.67000  111.27000  # c1,c,c1,o3e
dihedral_coeff	30 at    0.56230   -0.30410   -0.40150    0.96720   -0.75660   -1.23310  112.67000  111.27000  # c1,c,c1,oc
dihedral_coeff	31 at    0.56230   -0.30410   -0.40150    0.96720   -0.75660   -1.23310  112.67000  111.27000  # c1,c,c1,oh
dihedral_coeff	32 at    0.00000    0.00000    0.00000    0.00000    0.00000    0.00000  107.41000  113.28800  # c1,c,o_2,c_1
dihedral_coeff	33 at   -0.24540    0.00000   -0.11360    0.31130    0.45160   -0.19880  112.67000  110.77000  # c1,c1,c,hc
dihedral_coeff	34 at   -2.74660    1.48770   -0.89550    0.56760    0.94500    0.07030  111.27000  104.50000  # c1,c1,oc,c1
dihedral_coeff	35 at    0.00000    0.00000    0.00000    0.00000    0.00000    0.00000  111.27000  109.00000  # c1,c1,oh,h
dihedral_coeff	36 at   -0.77770    0.43400   -0.66530   -1.82340    1.63930    0.51440  104.50000  108.72800  # c1,o3e,c1,hc
dihedral_coeff	37 at   -0.77770    0.43400   -0.66530   -1.82340    1.63930    0.51440  104.50000  108.72800  # c1,oc,c1,hc
dihedral_coeff	38 at   -0.74660   -0.94480   -0.63210    0.01620    1.42110   -1.40920  108.52950  110.77000  # c_1,c1,c,hc
dihedral_coeff	39 at    0.00000    0.00000    0.00000    0.00000    0.00000    0.00000  113.28800  107.68800  # c_1,o_2,c,hc
dihedral_coeff	40 at    0.00000    0.00000    0.00000    0.00000    0.00000    0.00000  109.00000  108.72800  # h,oh,c1,hc
dihedral_coeff	41 at   -0.80850    0.55690   -0.24660   -0.80850    0.55690   -0.24660  110.77000  110.77000  # hc,c,c,hc
dihedral_coeff	42 at   -0.80850    0.55690   -0.24660   -0.80850    0.55690   -0.24660  110.77000  110.77000  # hc,c,c1,hc
dihedral_coeff	43 at    2.36680    2.49200   -1.01220   -0.18920    0.49180    0.72730  110.77000  111.27000  # hc,c,c1,o3e
dihedral_coeff	44 at    2.36680    2.49200   -1.01220   -0.18920    0.49180    0.72730  110.77000  111.27000  # hc,c,c1,oc
dihedral_coeff	45 at    2.36680    2.49200   -1.01220   -0.18920    0.49180    0.72730  110.77000  111.27000  # hc,c,c1,oh
dihedral_coeff	46 at    0.00000    0.00000    0.00000    0.00000    0.00000    0.00000  110.77000  107.41000  # hc,c1,c,o_2
dihedral_coeff	47 at   -0.80850    0.55690   -0.24660   -0.80850    0.55690   -0.24660  110.77000  110.77000  # hc,c1,c1,hc
dihedral_coeff	48 at    2.36680    2.49200   -1.01220   -0.18920    0.49180    0.72730  110.77000  111.27000  # hc,c1,c1,o3e
dihedral_coeff	49 at    2.36680    2.49200   -1.01220   -0.18920    0.49180    0.72730  110.77000  111.27000  # hc,c1,c1,oc
dihedral_coeff	50 at    2.36680    2.49200   -1.01220   -0.18920    0.49180    0.72730  110.77000  111.27000  # hc,c1,c1,oh
dihedral_coeff	51 at   -1.49460    0.73080   -0.20830    9.12990   -0.48470    0.35820  107.73360  123.14510  # hc,c1,c_1,o_1
dihedral_coeff	52 at    0.00000    0.00000    0.00000    0.00000    0.00000    0.00000  107.73360  100.31820  # hc,c1,c_1,o_2
dihedral_coeff	53 at    0.55110    0.97370   -0.66730    0.55110    0.97370   -0.66730  111.27000  111.27000  # oc,c1,c1,oc
dihedral_coeff	54 at    0.55110    0.97370   -0.66730    0.55110    0.97370   -0.66730  111.27000  111.27000  # oc,c1,c1,oh

# AngleAngleTorsion Coeffs

dihedral_coeff	 1 aat  -22.04500  112.67000  112.67000  # c,c,c,c1
dihedral_coeff	 2 aat  -16.16400  112.67000  110.77000  # c,c,c,hc
dihedral_coeff	 3 aat  -22.04500  112.67000  112.67000  # c,c,c1,c
dihedral_coeff	 4 aat  -22.04500  112.67000  112.67000  # c,c,c1,c1
dihedral_coeff	 5 aat   -0.38010  112.67000  108.52950  # c,c,c1,c_1
dihedral_coeff	 6 aat  -16.16400  112.67000  110.77000  # c,c,c1,hc
dihedral_coeff	 7 aat  -29.04200  112.67000  111.27000  # c,c,c1,o3e
dihedral_coeff	 8 aat  -29.04200  112.67000  111.27000  # c,c,c1,oc
dihedral_coeff	 9 aat  -22.04500  112.67000  112.67000  # c,c1,c,c1
dihedral_coeff	10 aat  -16.16400  112.67000  110.77000  # c,c1,c,hc
dihedral_coeff	11 aat    0.00000  112.67000  107.41000  # c,c1,c,o_2
dihedral_coeff	12 aat  -22.04500  112.67000  112.67000  # c,c1,c1,c
dihedral_coeff	13 aat  -16.16400  112.67000  110.77000  # c,c1,c1,hc
dihedral_coeff	14 aat  -29.04200  112.67000  111.27000  # c,c1,c1,o3e
dihedral_coeff	15 aat  -29.04200  112.67000  111.27000  # c,c1,c1,oc
dihedral_coeff	16 aat  -29.04200  112.67000  111.27000  # c,c1,c1,oh
dihedral_coeff	17 aat   -8.01900  108.52950  123.14510  # c,c1,c_1,o_1
dihedral_coeff	18 aat    0.00000  108.52950  100.31820  # c,c1,c_1,o_2
dihedral_coeff	19 aat  -19.00590  111.27000  104.50000  # c,c1,o3e,c1
dihedral_coeff	20 aat  -19.00590  111.27000  104.50000  # c,c1,oc,c1
dihedral_coeff	21 aat    0.00000  111.27000  109.00000  # c,c1,oh,h
dihedral_coeff	22 aat    0.00000  113.28800  100.31820  # c,o_2,c_1,c1
dihedral_coeff	23 aat    0.00000  113.28800  120.79700  # c,o_2,c_1,o_1
dihedral_coeff	24 aat  -22.04500  112.67000  112.67000  # c1,c,c,c1
dihedral_coeff	25 aat  -16.16400  112.67000  110.77000  # c1,c,c,hc
dihedral_coeff	26 aat  -22.04500  112.67000  112.67000  # c1,c,c1,c1
dihedral_coeff	27 aat   -0.38010  112.67000  108.52950  # c1,c,c1,c_1
dihedral_coeff	28 aat  -16.16400  112.67000  110.77000  # c1,c,c1,hc
dihedral_coeff	29 aat  -29.04200  112.67000  111.27000  # c1,c,c1,o3e
dihedral_coeff	30 aat  -29.04200  112.67000  111.27000  # c1,c,c1,oc
dihedral_coeff	31 aat  -29.04200  112.67000  111.27000  # c1,c,c1,oh
dihedral_coeff	32 aat    0.00000  107.41000  113.28800  # c1,c,o_2,c_1
dihedral_coeff	33 aat  -16.16400  112.67000  110.77000  # c1,c1,c,hc
dihedral_coeff	34 aat  -19.00590  111.27000  104.50000  # c1,c1,oc,c1
dihedral_coeff	35 aat    0.00000  111.27000  109.00000  # c1,c1,oh,h
dihedral_coeff	36 aat  -16.44380  104.50000  108.72800  # c1,o3e,c1,hc
dihedral_coeff	37 aat  -16.44380  104.50000  108.72800  # c1,oc,c1,hc
dihedral_coeff	38 aat   -5.36240  108.52950  110.77000  # c_1,c1,c,hc
dihedral_coeff	39 aat    0.00000  113.28800  107.68800  # c_1,o_2,c,hc
dihedral_coeff	40 aat    0.00000  109.00000  108.72800  # h,oh,c1,hc
dihedral_coeff	41 aat  -12.56400  110.77000  110.77000  # hc,c,c,hc
dihedral_coeff	42 aat  -12.56400  110.77000  110.77000  # hc,c,c1,hc
dihedral_coeff	43 aat  -20.20060  110.77000  111.27000  # hc,c,c1,o3e
dihedral_coeff	44 aat  -20.20060  110.77000  111.27000  # hc,c,c1,oc
dihedral_coeff	45 aat  -20.20060  110.77000  111.27000  # hc,c,c1,oh
dihedral_coeff	46 aat    0.00000  110.77000  107.41000  # hc,c1,c,o_2
dihedral_coeff	47 aat  -12.56400  110.77000  110.77000  # hc,c1,c1,hc
dihedral_coeff	48 aat  -20.20060  110.77000  111.27000  # hc,c1,c1,o3e
dihedral_coeff	49 aat  -20.20060  110.77000  111.27000  # hc,c1,c1,oc
dihedral_coeff	50 aat  -20.20060  110.77000  111.27000  # hc,c1,c1,oh
dihedral_coeff	51 aat  -15.34960  107.73360  123.14510  # hc,c1,c_1,o_1
dihedral_coeff	52 aat    0.00000  107.73360  100.31820  # hc,c1,c_1,o_2
dihedral_coeff	53 aat  -14.04840  111.27000  111.27000  # oc,c1,c1,oc
dihedral_coeff	54 aat  -14.04840  111.27000  111.27000  # oc,c1,c1,oh

# BondBond13 Coeffs

dihedral_coeff	 1 bb13    0.00000    1.53000    1.53000  # c,c,c,c1
dihedral_coeff	 2 bb13    0.00000    1.53000    1.10100  # c,c,c,hc
dihedral_coeff	 3 bb13    0.00000    1.53000    1.53000  # c,c,c1,c
dihedral_coeff	 4 bb13    0.00000    1.53000    1.53000  # c,c,c1,c1
dihedral_coeff	 5 bb13    0.00000    1.53000    1.52020  # c,c,c1,c_1
dihedral_coeff	 6 bb13    0.00000    1.53000    1.10100  # c,c,c1,hc
dihedral_coeff	 7 bb13    0.00000    1.53000    1.42000  # c,c,c1,o3e
dihedral_coeff	 8 bb13    0.00000    1.53000    1.42000  # c,c,c1,oc
dihedral_coeff	 9 bb13    0.00000    1.53000    1.53000  # c,c1,c,c1
dihedral_coeff	10 bb13    0.00000    1.53000    1.10100  # c,c1,c,hc
dihedral_coeff	11 bb13    0.00000    1.53000    1.43000  # c,c1,c,o_2
dihedral_coeff	12 bb13    0.00000    1.53000    1.53000  # c,c1,c1,c
dihedral_coeff	13 bb13    0.00000    1.53000    1.10100  # c,c1,c1,hc
dihedral_coeff	14 bb13    0.00000    1.53000    1.42000  # c,c1,c1,o3e
dihedral_coeff	15 bb13    0.00000    1.53000    1.42000  # c,c1,c1,oc
dihedral_coeff	16 bb13    0.00000    1.53000    1.42000  # c,c1,c1,oh
dihedral_coeff	17 bb13    0.00000    1.53000    1.20200  # c,c1,c_1,o_1
dihedral_coeff	18 bb13    0.00000    1.53000    1.36830  # c,c1,c_1,o_2
dihedral_coeff	19 bb13    0.00000    1.53000    1.42000  # c,c1,o3e,c1
dihedral_coeff	20 bb13    0.00000    1.53000    1.42000  # c,c1,oc,c1
dihedral_coeff	21 bb13    0.00000    1.53000    0.96000  # c,c1,oh,h
dihedral_coeff	22 bb13    0.00000    1.43000    1.52020  # c,o_2,c_1,c1
dihedral_coeff	23 bb13    0.00000    1.43000    1.20200  # c,o_2,c_1,o_1
dihedral_coeff	24 bb13    0.00000    1.53000    1.53000  # c1,c,c,c1
dihedral_coeff	25 bb13    0.00000    1.53000    1.10100  # c1,c,c,hc
dihedral_coeff	26 bb13    0.00000    1.53000    1.53000  # c1,c,c1,c1
dihedral_coeff	27 bb13    0.00000    1.53000    1.52020  # c1,c,c1,c_1
dihedral_coeff	28 bb13    0.00000    1.53000    1.10100  # c1,c,c1,hc
dihedral_coeff	29 bb13    0.00000    1.53000    1.42000  # c1,c,c1,o3e
dihedral_coeff	30 bb13    0.00000    1.53000    1.42000  # c1,c,c1,oc
dihedral_coeff	31 bb13    0.00000    1.53000    1.42000  # c1,c,c1,oh
dihedral_coeff	32 bb13    0.00000    1.53000    1.36830  # c1,c,o_2,c_1
dihedral_coeff	33 bb13    0.00000    1.53000    1.10100  # c1,c1,c,hc
dihedral_coeff	34 bb13    0.00000    1.53000    1.42000  # c1,c1,oc,c1
dihedral_coeff	35 bb13    0.00000    1.53000    0.96000  # c1,c1,oh,h
dihedral_coeff	36 bb13    0.00000    1.42000    1.10100  # c1,o3e,c1,hc
dihedral_coeff	37 bb13    0.00000    1.42000    1.10100  # c1,oc,c1,hc
dihedral_coeff	38 bb13    0.00000    1.52020    1.10100  # c_1,c1,c,hc
dihedral_coeff	39 bb13    0.00000    1.36830    1.10100  # c_1,o_2,c,hc
dihedral_coeff	40 bb13    0.00000    0.96000    1.10100  # h,oh,c1,hc
dihedral_coeff	41 bb13    0.00000    1.10100    1.10100  # hc,c,c,hc
dihedral_coeff	42 bb13    0.00000    1.10100    1.10100  # hc,c,c1,hc
dihedral_coeff	43 bb13    0.00000    1.10100    1.42000  # hc,c,c1,o3e
dihedral_coeff	44 bb13    0.00000    1.10100    1.42000  # hc,c,c1,oc
dihedral_coeff	45 bb13    0.00000    1.10100    1.42000  # hc,c,c1,oh
dihedral_coeff	46 bb13    0.00000    1.10100    1.43000  # hc,c1,c,o_2
dihedral_coeff	47 bb13    0.00000    1.10100    1.10100  # hc,c1,c1,hc
dihedral_coeff	48 bb13    0.00000    1.10100    1.42000  # hc,c1,c1,o3e
dihedral_coeff	49 bb13    0.00000    1.10100    1.42000  # hc,c1,c1,oc
dihedral_coeff	50 bb13    0.00000    1.10100    1.42000  # hc,c1,c1,oh
dihedral_coeff	51 bb13    0.00000    1.10100    1.20200  # hc,c1,c_1,o_1
dihedral_coeff	52 bb13    0.00000    1.10100    1.36830  # hc,c1,c_1,o_2
dihedral_coeff	53 bb13    0.00000    1.42000    1.42000  # oc,c1,c1,oc
dihedral_coeff	54 bb13    0.00000    1.42000    1.42000  # oc,c1,c1,oh

# Improper Coeffs

improper_coeff	 1    0.00000    0.00000  # c,c,c,hc
improper_coeff	 2    0.00000    0.00000  # c,c,c1,hc
improper_coeff	 3    0.00000    0.00000  # c,c,hc,c1
improper_coeff	 4    0.00000    0.00000  # c,c,hc,hc
improper_coeff	 5    0.00000    0.00000  # c,c1,c1,hc
improper_coeff	 6    0.00000    0.00000  # c,c1,hc,hc
improper_coeff	 7    0.00000    0.00000  # c,c1,hc,o_2
improper_coeff	 8    0.00000    0.00000  # c,c1,o_2,hc
improper_coeff	 9    0.00000    0.00000  # c,hc,hc,o_2
improper_coeff	10    0.00000    0.00000  # c1,c,c,c
improper_coeff	11    0.00000    0.00000  # c1,c,c,c_1
improper_coeff	12    0.00000    0.00000  # c1,c,c,hc
improper_coeff	13    0.00000    0.00000  # c1,c,c,oc
improper_coeff	14    0.00000    0.00000  # c1,c,c1,hc
improper_coeff	15    0.00000    0.00000  # c1,c,c1,o3e
improper_coeff	16    0.00000    0.00000  # c1,c,c1,oc
improper_coeff	17    0.00000    0.00000  # c1,c,c1,oh
improper_coeff	18    0.00000    0.00000  # c1,c,c_1,hc
improper_coeff	19    0.00000    0.00000  # c1,c,hc,c1
improper_coeff	20    0.00000    0.00000  # c1,c,hc,c_1
improper_coeff	21    0.00000    0.00000  # c1,c,hc,o3e
improper_coeff	22    0.00000    0.00000  # c1,c,hc,oc
improper_coeff	23    0.00000    0.00000  # c1,c,hc,oh
improper_coeff	24    0.00000    0.00000  # c1,c,o3e,hc
improper_coeff	25    0.00000    0.00000  # c1,c,oc,c1
improper_coeff	26    0.00000    0.00000  # c1,c,oc,hc
improper_coeff	27    0.00000    0.00000  # c1,c1,hc,oc
improper_coeff	28    0.00000    0.00000  # c1,c1,o3e,hc
improper_coeff	29    0.00000    0.00000  # c1,c1,oc,hc
improper_coeff	30    0.00000    0.00000  # c1,c1,oh,hc
improper_coeff	31   46.92640    0.00000  # c_1,c1,o_1,o_2
improper_coeff	32   46.92640    0.00000  # c_1,c1,o_2,o_1

# AngleAngle Coeffs

improper_coeff	 1 aa    0.00000    0.00000    0.11840  112.67000  110.77000  110.77000  # c,c,c,hc
improper_coeff	 2 aa    0.00000   -1.31990    0.00000  112.67000  110.77000  110.77000  # c,c,c1,hc
improper_coeff	 3 aa    0.00000   -1.31990    0.00000  110.77000  112.67000  110.77000  # c,c,hc,c1
improper_coeff	 4 aa    0.00000   -0.48250    0.00000  110.77000  110.77000  107.66000  # c,c,hc,hc
improper_coeff	 5 aa   -1.31990   -1.31990    0.11840  112.67000  110.77000  110.77000  # c,c1,c1,hc
improper_coeff	 6 aa    0.27380   -0.48250    0.27380  110.77000  110.77000  107.66000  # c,c1,hc,hc
improper_coeff	 7 aa    0.00000    0.00000    0.00000  110.77000  107.41000  107.68800  # c,c1,hc,o_2
improper_coeff	 8 aa    0.00000    0.00000    0.00000  107.41000  110.77000  107.68800  # c,c1,o_2,hc
improper_coeff	 9 aa    0.00000    0.00000    0.00000  107.66000  107.68800  107.68800  # c,hc,hc,o_2
improper_coeff	10 aa   -0.17290   -0.17290   -0.17290  112.67000  112.67000  112.67000  # c1,c,c,c
improper_coeff	11 aa    0.00000    0.00000    0.00000  112.67000  108.52950  108.52950  # c1,c,c,c_1
improper_coeff	12 aa    0.00000    0.00000    0.11840  112.67000  110.77000  110.77000  # c1,c,c,hc
improper_coeff	13 aa   -0.83300   -0.83300   -3.57440  112.67000  111.27000  111.27000  # c1,c,c,oc
improper_coeff	14 aa    0.00000   -1.31990    0.00000  112.67000  110.77000  110.77000  # c1,c,c1,hc
improper_coeff	15 aa   -0.83300   -0.83300    0.00000  112.67000  111.27000  111.27000  # c1,c,c1,o3e
improper_coeff	16 aa   -0.83300   -0.83300    0.00000  112.67000  111.27000  111.27000  # c1,c,c1,oc
improper_coeff	17 aa   -0.83300   -0.83300    0.00000  112.67000  111.27000  111.27000  # c1,c,c1,oh
improper_coeff	18 aa    0.00000   -1.82020    0.00000  108.52950  110.77000  107.73360  # c1,c,c_1,hc
improper_coeff	19 aa    0.00000   -1.31990    0.00000  110.77000  112.67000  110.77000  # c1,c,hc,c1
improper_coeff	20 aa    0.00000   -1.82020    0.00000  110.77000  108.52950  107.73360  # c1,c,hc,c_1
improper_coeff	21 aa    3.91770    2.59260    0.00000  110.77000  111.27000  108.72800  # c1,c,hc,o3e
improper_coeff	22 aa    3.91770    2.59260    0.00000  110.77000  111.27000  108.72800  # c1,c,hc,oc
improper_coeff	23 aa    3.91770    2.59260    0.00000  110.77000  111.27000  108.72800  # c1,c,hc,oh
improper_coeff	24 aa    0.00000    2.59260    3.91770  111.27000  110.77000  108.72800  # c1,c,o3e,hc
improper_coeff	25 aa    0.00000   -0.83300   -0.83300  111.27000  112.67000  111.27000  # c1,c,oc,c1
improper_coeff	26 aa    0.00000    2.59260    3.91770  111.27000  110.77000  108.72800  # c1,c,oc,hc
improper_coeff	27 aa    3.91770    2.59260    0.16890  110.77000  111.27000  108.72800  # c1,c1,hc,oc
improper_coeff	28 aa    0.16890    2.59260    3.91770  111.27000  110.77000  108.72800  # c1,c1,o3e,hc
improper_coeff	29 aa    0.16890    2.59260    3.91770  111.27000  110.77000  108.72800  # c1,c1,oc,hc
improper_coeff	30 aa    0.16890    2.59260    3.91770  111.27000  110.77000  108.72800  # c1,c1,oh,hc
improper_coeff	31 aa    0.00000    0.00000    0.00000  123.14510  100.31820  120.79700  # c_1,c1,o_1,o_2
improper_coeff	32 aa    0.00000    0.00000    0.00000  100.31820  123.14510  120.79700  # c_1,c1,o_2,o_1

# ------------------------------- OPT Section -------------------------------
minimize 1.0e-5 1.0e-7 100000 400000
PPPM initialization ...
  G vector (1/distance) = 0.15373212
  grid = 6 6 6
  stencil order = 5
  estimated absolute RMS force accuracy = 0.28183109
  estimated relative force accuracy = 0.00084872597
  3d grid and FFT values/proc = 392 12
Generated 45 of 45 mixed pair_coeff terms from sixthpower/sixthpower mixing rule
  PPPM/cg optimization cutoff: 1e-05
  Total charged atoms: 100.0%
  Min/max charged atoms/proc: 100.0% 100.0%
Step          Temp          E_pair         E_mol          TotEng         Press
0   616.26499      756.38559      17921.839      27773.058     -2047.3911
Loop time of 1.18088 on 24 procs for 102 steps with 4952 atoms

Minimization stats:
  Stopping criterion = linesearch alpha is zero
  Energy initial, next-to-last, final =
  Force two-norm initial, final = 3443.9772 88.876979
  Force max component initial, final = 184.19764 36.648585
  Final line search alpha, max atom move = 7.5498432e-13 2.7669107e-11
  Iterations, force evaluations = 102 266

# ------------------------------- Run Section -------------------------------
#

timestep 0.25
neighbor        2.0 bin
neigh_modify    delay 0 every 1 check yes

thermo_style custom step temp pe evdwl ecoul ebond eangle edihed eimp density vol
thermo 20000

variable        Rho equal density
variable        Temp equal temp
variable        Volume equal vol
fix             fDENS all ave/time 100 100 300000 v_Temp v_Rho v_Volume file temp_vs_density.txt

label           loop
variable        a loop 26
variable        b equal 600-20*($a-1)
variable        b equal 600-20*(1-1)
fix             fMOM all momentum 100 linear 1 1 1 angular
fix             fNPT all npt temp $b $b $(100.0*dt) iso 1 1 $(100.0*dt)
fix             fNPT all npt temp 600 $b $(100.0*dt) iso 1 1 $(100.0*dt)
fix             fNPT all npt temp 600 600 $(100.0*dt) iso 1 1 $(100.0*dt)
fix             fNPT all npt temp 600 600 25 iso 1 1 $(100.0*dt)
fix             fNPT all npt temp 600 600 25 iso 1 1 25
run             1200000
PPPM initialization ...
  G vector (1/distance) = 0.15373212
  grid = 6 6 6
  stencil order = 5
  estimated absolute RMS force accuracy = 0.28183109
  estimated relative force accuracy = 0.00084872597
  3d grid and FFT values/proc = 392 12
Generated 45 of 45 mixed pair_coeff terms from sixthpower/sixthpower mixing rule
Step          Temp          PotEng         E_vdwl         E_coul         E_bond        E_angle        E_dihed        E_impro        Density         Volume
102   616.26499      9890.1125     -1274.8662      6091.733       405.75797      13724.835     -4300.5815     -41.830077      1.0196413      53437.349
Averages over the last 31 of 62 rows, steps 620000 to 1200102:
Temp PotEng E_vdwl E_coul E_bond E_angle E_dihed E_impro Density Volume
599.75 18574.7 -625.557 6105.12 3889.75 17751.1 -3865.31 32.7817 1.03036 52884.4
Loop time of 4174.68 on 24 procs for 1200000 steps with 4952 atoms

unfix           fNPT
unfix           fMOM
next            a
jump            SELF loop
variable        a loop 26
variable        b equal 600-20*($a-1)
variable        b equal 600-20*(2-1)
fix             fMOM all momentum 100 linear 1 1 1 angular
fix             fNPT all npt temp $b $b $(100.0*dt) iso 1 1 $(100.0*dt)
fix             fNPT all npt temp 580 $b $(100.0*dt) iso 1 1 $(100.0*dt)
fix             fNPT all npt temp 580 580 $(100.0*dt) iso 1 1 $(100.0*dt)
fix             fNPT all npt temp 580 580 25 iso 1 1 $(100.0*dt)
fix             fNPT all npt temp 580 580 25 iso 1 1 25
run             1200000
PPPM initialization ...
  G vector (1/distance) = 0.15418422
  grid = 6 6 6
  stencil order = 5
  estimated absolute RMS force accuracy = 0.27993989
  estimated relative force accuracy = 0.00084303067
  3d grid and FFT values/proc = 392 12
Generated 45 of 45 mixed pair_coeff terms from sixthpower/sixthpower mixing rule
Step          Temp          PotEng         E_vdwl         E_coul         E_bond        E_angle        E_dihed        E_impro        Density         Volume
1200102   610.95044      18509.592     -658.81863      6125.8614      3851.9677      17686.791     -3819.2752      49.267339      1.0344057      52674.624
Averages over the last 31 of 62 rows, steps 1820000 to 2400102:
Temp PotEng E_vdwl E_coul E_bond E_angle E_dihed E_impro Density Volume
579.727 18247 -676.014 6119.63 3762.85 17632.2 -3892.68 28.0825 1.0388 52453.3
Loop time of 4176.55 on 24 procs for 1200000 steps with 4952 atoms

unfix           fNPT
unfix           fMOM
next            a
jump            SELF loop
variable        a loop 26
variable        b equal 600-20*($a-1)
variable        b equal 600-20*(3-1)
fix             fMOM all momentum 100 linear 1 1 1 angular
fix             fNPT all npt temp $b $b $(100.0*dt) iso 1 1 $(100.0*dt)
fix             fNPT all npt temp 560 $b $(100.0*dt) iso 1 1 $(100.0*dt)
fix             fNPT all npt temp 560 560 $(100.0*dt) iso 1 1 $(100.0*dt)
fix             fNPT all npt temp 560 560 25 iso 1 1 $(100.0*dt)
fix             fNPT all npt temp 560 560 25 iso 1 1 25
run             1200000
PPPM initialization ...
  G vector (1/distance) = 0.1544259
  grid = 6 6 6
  stencil order = 5
  estimated absolute RMS force accuracy = 0.27892884
  estimated relative force accuracy = 0.00083998593
  3d grid and FFT values/proc = 392 12
Generated 45 of 45 mixed pair_coeff terms from sixthpower/sixthpower mixing rule
Step          Temp          PotEng         E_vdwl         E_coul         E_bond        E_angle        E_dihed        E_impro        Density         Volume
2400102   577.64216      18373.443     -644.09288      6109.599       3825.3145      17598.738     -3832.9925      51.299686      1.0423811      52271.603
Averages over the last 31 of 62 rows, steps 3020000 to 3600102:
Temp PotEng E_vdwl E_coul E_bond E_angle E_dihed E_impro Density Volume
559.048 17976.6 -698.052 6119.94 3660.67 17499.3 -3894.81 24.4645 1.03888 52450.5
Loop time of 4065.8 on 24 procs for 1200000 steps with 4952 atoms

unfix           fNPT
unfix           fMOM
next            a
jump            SELF loop
variable        a loop 26
variable        b equal 600-20*($a-1)
variable        b equal 600-20*(4-1)
fix             fMOM all momentum 100 linear 1 1 1 angular
fix             fNPT all npt temp $b $b $(100.0*dt) iso 1 1 $(100.0*dt)
fix             fNPT all npt temp 540 $b $(100.0*dt) iso 1 1 $(100.0*dt)
fix             fNPT all npt temp 540 540 $(100.0*dt) iso 1 1 $(100.0*dt)
fix             fNPT all npt temp 540 540 25 iso 1 1 $(100.0*dt)
fix             fNPT all npt temp 540 540 25 iso 1 1 25
run             1200000
PPPM initialization ...
  G vector (1/distance) = 0.15481491
  grid = 6 6 6
  stencil order = 5
  estimated absolute RMS force accuracy = 0.27730141
  estimated relative force accuracy = 0.00083508495
  3d grid and FFT values/proc = 392 12
Generated 45 of 45 mixed pair_coeff terms from sixthpower/sixthpower mixing rule
Step          Temp          PotEng         E_vdwl         E_coul         E_bond        E_angle        E_dihed        E_impro        Density         Volume
3600102   550.57626      17928.866     -699.5062       6110.5737      3619.8726      17492.858     -3874.1873      26.993127      1.0553413      51629.677
Averages over the last 31 of 62 rows, steps 4220000 to 4800102:
Temp PotEng E_vdwl E_coul E_bond E_angle E_dihed E_impro Density Volume
539.068 17630.4 -735.869 6131.25 3532.67 17353.3 -3925.36 21.4785 1.04613 52087.3
Loop time of 4110.18 on 24 procs for 1200000 steps with 4952 atoms

unfix           fNPT
unfix           fMOM
next            a
jump            SELF loop
variable        a loop 26
variable        b equal 600-20*($a-1)
variable        b equal 600-20*(5-1)
fix             fMOM all momentum 100 linear 1 1 1 angular
fix             fNPT all npt temp $b $b $(100.0*dt) iso 1 1 $(100.0*dt)
fix             fNPT all npt temp 520 $b $(100.0*dt) iso 1 1 $(100.0*dt)
fix             fNPT all npt temp 520 520 $(100.0*dt) iso 1 1 $(100.0*dt)
fix             fNPT all npt temp 520 520 25 iso 1 1 $(100.0*dt)
fix             fNPT all npt temp 520 520 25 iso 1 1 25
run             1200000
PPPM initialization ...
  G vector (1/distance) = 0.15427466
  grid = 6 6 6
  stencil order = 5
  estimated absolute RMS force accuracy = 0.27956155
  estimated relative force accuracy = 0.00084189131
  3d grid and FFT values/proc = 392 12
Generated 45 of 45 mixed pair_coeff terms from sixthpower/sixthpower mixing rule
Step          Temp          PotEng         E_vdwl         E_coul         E_bond        E_angle        E_dihed        E_impro        Density         Volume
4800102   536.6963       17573.387     -683.74454      6085.3064      3469.6085      17266.46      -3866.6331      34.347691      1.0373833      52523.429
Averages over the last 31 of 62 rows, steps 5420000 to 6000102:
Temp PotEng E_vdwl E_coul E_bond E_angle E_dihed E_impro Density Volume
520.058 17283.1 -787.533 6115.45 3385.83 17216.7 -3940.06 22.3698 1.05456 51670.9
Loop time of 4085.95 on 24 procs for 1200000 steps with 4952 atoms

unfix           fNPT
unfix           fMOM
next            a
jump            SELF loop
variable        a loop 26
variable        b equal 600-20*($a-1)
variable        b equal 600-20*(6-1)
fix             fMOM all momentum 100 linear 1 1 1 angular
fix             fNPT all npt temp $b $b $(100.0*dt) iso 1 1 $(100.0*dt)
fix             fNPT all npt temp 500 $b $(100.0*dt) iso 1 1 $(100.0*dt)
fix             fNPT all npt temp 500 500 $(100.0*dt) iso 1 1 $(100.0*dt)
fix             fNPT all npt temp 500 500 25 iso 1 1 $(100.0*dt)
fix             fNPT all npt temp 500 500 25 iso 1 1 25
run             1200000
PPPM initialization ...
  G vector (1/distance) = 0.15468624
  grid = 6 6 6
  stencil order = 5
  estimated absolute RMS force accuracy = 0.2778397
  estimated relative force accuracy = 0.000836706
  3d grid and FFT values/proc = 392 12
Generated 45 of 45 mixed pair_coeff terms from sixthpower/sixthpower mixing rule
Step          Temp          PotEng         E_vdwl         E_coul         E_bond        E_angle        E_dihed        E_impro        Density         Volume
6000102   521.25476      17225.034     -776.15361      6128.8835      3421.6223      17096.323     -3941.5506      37.736007      1.0510377      51841.081
Averages over the last 31 of 62 rows, steps 6620000 to 7200102:
Temp PotEng E_vdwl E_coul E_bond E_angle E_dihed E_impro Density Volume
501.055 16988.3 -826.883 6127.21 3299.63 17076.5 -3962.98 18.261 1.05925 51441.9
Loop time of 4083.29 on 24 procs for 1200000 steps with 4952 atoms

unfix           fNPT
unfix           fMOM
next            a
jump            SELF loop
variable        a loop 26
variable        b equal 600-20*($a-1)
variable        b equal 600-20*(7-1)
fix             fMOM all momentum 100 linear 1 1 1 angular
fix             fNPT all npt temp $b $b $(100.0*dt) iso 1 1 $(100.0*dt)
fix             fNPT all npt temp 480 $b $(100.0*dt) iso 1 1 $(100.0*dt)
fix             fNPT all npt temp 480 480 $(100.0*dt) iso 1 1 $(100.0*dt)
fix             fNPT all npt temp 480 480 25 iso 1 1 $(100.0*dt)
fix             fNPT all npt temp 480 480 25 iso 1 1 25
run             1200000
PPPM initialization ...
  G vector (1/distance) = 0.15516006
  grid = 6 6 6
  stencil order = 5
  estimated absolute RMS force accuracy = 0.27585757
  estimated relative force accuracy = 0.00083073687
  3d grid and FFT values/proc = 392 12
Generated 45 of 45 mixed pair_coeff terms from sixthpower/sixthpower mixing rule
Step          Temp          PotEng         E_vdwl         E_coul         E_bond        E_angle        E_dihed        E_impro        Density         Volume
7200102   510.01755      16970.218     -933.07619      6161.9344      3348.2201      17128.993     -3997.4803      20.943758      1.0669679      51067.074
Averages over the last 31 of 62 rows, steps 7820000 to 8400102:
Temp PotEng E_vdwl E_coul E_bond E_angle E_dihed E_impro Density Volume
479.356 16668.2 -848.482 6141.97 3168.17 16928.2 -3982.47 18.9146 1.0645 51188.6
Loop time of 4068.8 on 24 procs for 1200000 steps with 4952 atoms

unfix           fNPT
unfix           fMOM
next            a
jump            SELF loop
variable        a loop 26
variable        b equal 600-20*($a-1)
variable        b equal 600-20*(8-1)
fix             fMOM all momentum 100 linear 1 1 1 angular
fix             fNPT all npt temp $b $b $(100.0*dt) iso 1 1 $(100.0*dt)
fix             fNPT all npt temp 460 $b $(100.0*dt) iso 1 1 $(100.0*dt)
fix             fNPT all npt temp 460 460 $(100.0*dt) iso 1 1 $(100.0*dt)
fix             fNPT all npt temp 460 460 25 iso 1 1 $(100.0*dt)
fix             fNPT all npt temp 460 460 25 iso 1 1 25
run             1200000
PPPM initialization ...
  G vector (1/distance) = 0.1552627
  grid = 6 6 6
  stencil order = 5
  estimated absolute RMS force accuracy = 0.27542822
  estimated relative force accuracy = 0.00082944392
  3d grid and FFT values/proc = 392 12
Generated 45 of 45 mixed pair_coeff terms from sixthpower/sixthpower mixing rule
Step          Temp          PotEng         E_vdwl         E_coul         E_bond        E_angle        E_dihed        E_impro        Density         Volume
8400102   481.71652      16649.189     -870.96588      6143.8364      3200.045       16825.719     -3896.6154      9.1757635      1.0704488      50901.012
Averages over the last 31 of 62 rows, steps 9020000 to 9600102:
Temp PotEng E_vdwl E_coul E_bond E_angle E_dihed E_impro Density Volume
461.601 16323.1 -925.947 6135.44 3045.7 16816.7 -3999.59 12.615 1.08227 50346.5
Loop time of 4084.56 on 24 procs for 1200000 steps with 4952 atoms

unfix           fNPT
unfix           fMOM
next            a
jump            SELF loop
variable        a loop 26
variable        b equal 600-20*($a-1)
variable        b equal 600-20*(9-1)
fix             fMOM all momentum 100 linear 1 1 1 angular
fix             fNPT all npt temp $b $b $(100.0*dt) iso 1 1 $(100.0*dt)
fix             fNPT all npt temp 440 $b $(100.0*dt) iso 1 1 $(100.0*dt)
fix             fNPT all npt temp 440 440 $(100.0*dt) iso 1 1 $(100.0*dt)
fix             fNPT all npt temp 440 440 25 iso 1 1 $(100.0*dt)
fix             fNPT all npt temp 440 440 25 iso 1 1 25
run             1200000
PPPM initialization ...
  G vector (1/distance) = 0.15580597
  grid = 6 6 6
  stencil order = 5
  estimated absolute RMS force accuracy = 0.27315603
  estimated relative force accuracy = 0.00082260126
  3d grid and FFT values/proc = 392 12
Generated 45 of 45 mixed pair_coeff terms from sixthpower/sixthpower mixing rule
Step          Temp          PotEng         E_vdwl         E_coul         E_bond        E_angle        E_dihed        E_impro        Density         Volume
9600102   449.51916      16444.44      -930.36466      6147.1942      3096.6518      16901.17      -3992.8934      1.862473       1.0890541      50031.426
Averages over the last 31 of 62 rows, steps 10220000 to 10800102:
Temp PotEng E_vdwl E_coul E_bond E_angle E_dihed E_impro Density Volume
441.329 15955.6 -967.191 6146.85 2909.58 16647.9 -4016.37 13.8006 1.08713 50121.6
Loop time of 4105.33 on 24 procs for 1200000 steps with 4952 atoms

unfix           fNPT
unfix           fMOM
next            a
jump            SELF loop
variable        a loop 26
variable        b equal 600-20*($a-1)
variable        b equal 600-20*(10-1)
fix             fMOM all momentum 100 linear 1 1 1 angular
fix             fNPT all npt temp $b $b $(100.0*dt) iso 1 1 $(100.0*dt)
fix             fNPT all npt temp 420 $b $(100.0*dt) iso 1 1 $(100.0*dt)
fix             fNPT all npt temp 420 420 $(100.0*dt) iso 1 1 $(100.0*dt)
fix             fNPT all npt temp 420 420 25 iso 1 1 $(100.0*dt)
fix             fNPT all npt temp 420 420 25 iso 1 1 25
run             1200000
PPPM initialization ...
  G vector (1/distance) = 0.15571902
  grid = 6 6 6
  stencil order = 5
  estimated absolute RMS force accuracy = 0.27351962
  estimated relative force accuracy = 0.00082369622
  3d grid and FFT values/proc = 392 12
Generated 45 of 45 mixed pair_coeff terms from sixthpower/sixthpower mixing rule
Step          Temp          PotEng         E_vdwl         E_coul         E_bond        E_angle        E_dihed        E_impro        Density         Volume
10800102   436.70119      15869.731     -905.62177      6144.085       2892.405       16552.4       -4042.9442      7.2367758      1.086056       50169.539
Averages over the last 31 of 62 rows, steps 11420000 to 12000102:
Temp PotEng E_vdwl E_coul E_bond E_angle E_dihed E_impro Density Volume
420.086 15651.2 -989.5 6144.93 2788.28 16512.1 -4037.35 8.61549 1.09055 49964.4
Loop time of 4095.51 on 24 procs for 1200000 steps with 4952 atoms

unfix           fNPT
unfix           fMOM
next            a
jump            SELF loop
variable        a loop 26
variable        b equal 600-20*($a-1)
variable        b equal 600-20*(11-1)
fix             fMOM all momentum 100 linear 1 1 1 angular
fix             fNPT all npt temp $b $b $(100.0*dt) iso 1 1 $(100.0*dt)
fix             fNPT all npt temp 400 $b $(100.0*dt) iso 1 1 $(100.0*dt)
fix             fNPT all npt temp 400 400 $(100.0*dt) iso 1 1 $(100.0*dt)
fix             fNPT all npt temp 400 400 25 iso 1 1 $(100.0*dt)
fix             fNPT all npt temp 400 400 25 iso 1 1 25
run             1200000
PPPM initialization ...
  G vector (1/distance) = 0.15582246
  grid = 6 6 6
  stencil order = 5
  estimated absolute RMS force accuracy = 0.27308705
  estimated relative force accuracy = 0.00082239354
  3d grid and FFT values/proc = 392 12
Generated 45 of 45 mixed pair_coeff terms from sixthpower/sixthpower mixing rule
Step          Temp          PotEng         E_vdwl         E_coul         E_bond        E_angle        E_dihed        E_impro        Density         Volume
12000102   417.12034      15728.422     -974.17587      6147.0096      2778.576       16599.351     -4043.4235      0.88225073     1.0896238      50005.269
Averages over the last 31 of 62 rows, steps 12620000 to 13200102:
Temp PotEng E_vdwl E_coul E_bond E_angle E_dihed E_impro Density Volume
398.518 15338.8 -1038.49 6137.96 2678.43 16392.6 -4059.08 7.0055 1.09498 49761.6
Loop time of 4093.16 on 24 procs for 1200000 steps with 4952 atoms

unfix           fNPT
unfix           fMOM
next            a
jump            SELF loop
variable        a loop 26
variable        b equal 600-20*($a-1)
variable        b equal 600-20*(12-1)
fix             fMOM all momentum 100 linear 1 1 1 angular
fix             fNPT all npt temp $b $b $(100.0*dt) iso 1 1 $(100.0*dt)
fix             fNPT all npt temp 380 $b $(100.0*dt) iso 1 1 $(100.0*dt)
fix             fNPT all npt temp 380 380 $(100.0*dt) iso 1 1 $(100.0*dt)
fix             fNPT all npt temp 380 380 25 iso 1 1 $(100.0*dt)
fix             fNPT all npt temp 380 380 25 iso 1 1 25
run             1200000
PPPM initialization ...
  G vector (1/distance) = 0.1559085
  grid = 6 6 6
  stencil order = 5
  estimated absolute RMS force accuracy = 0.27272729
  estimated relative force accuracy = 0.00082131014
  3d grid and FFT values/proc = 392 12
Generated 45 of 45 mixed pair_coeff terms from sixthpower/sixthpower mixing rule
Step          Temp          PotEng         E_vdwl         E_coul         E_bond        E_angle        E_dihed        E_impro        Density         Volume
13200102   392.12401      15415.025     -1038.2711      6146.1828      2734.2648      16378.37      -4023.306       0.29540417     1.0925996      49869.072
Averages over the last 31 of 62 rows, steps 13820000 to 14400102:
Temp PotEng E_vdwl E_coul E_bond E_angle E_dihed E_impro Density Volume
381.184 14995.8 -1087.78 6137.3 2566.36 16241.1 -4082.16 3.52571 1.09965 49550.9
Loop time of 4104.93 on 24 procs for 1200000 steps with 4952 atoms

unfix           fNPT
unfix           fMOM
next            a
jump            SELF loop
variable        a loop 26
variable        b equal 600-20*($a-1)
variable        b equal 600-20*(13-1)
fix             fMOM all momentum 100 linear 1 1 1 angular
fix             fNPT all npt temp $b $b $(100.0*dt) iso 1 1 $(100.0*dt)
fix             fNPT all npt temp 360 $b $(100.0*dt) iso 1 1 $(100.0*dt)
fix             fNPT all npt temp 360 360 $(100.0*dt) iso 1 1 $(100.0*dt)
fix             fNPT all npt temp 360 360 25 iso 1 1 $(100.0*dt)
fix             fNPT all npt temp 360 360 25 iso 1 1 25
run             1200000
PPPM initialization ...
  G vector (1/distance) = 0.15629653
  grid = 6 6 6
  stencil order = 5
  estimated absolute RMS force accuracy = 0.27110495
  estimated relative force accuracy = 0.00081642452
  3d grid and FFT values/proc = 392 12
Generated 45 of 45 mixed pair_coeff terms from sixthpower/sixthpower mixing rule
Step          Temp          PotEng         E_vdwl         E_coul         E_bond        E_angle        E_dihed        E_impro        Density         Volume
14400102   381.03322      15033.268     -1074.1652      6151.8636      2513.9557      16272.784     -4035.5525     -0.65205137     1.1061182      49259.591
Averages over the last 31 of 62 rows, steps 15020000 to 15600102:
Temp PotEng E_vdwl E_coul E_bond E_angle E_dihed E_impro Density Volume
358.785 14710.2 -1127.34 6155.03 2449.84 16126.6 -4100.72 1.6044 1.10829 49163.9
Loop time of 4105.95 on 24 procs for 1200000 steps with 4952 atoms

unfix           fNPT
unfix           fMOM
next            a
jump            SELF loop
variable        a loop 26
variable        b equal 600-20*($a-1)
variable        b equal 600-20*(14-1)
fix             fMOM all momentum 100 linear 1 1 1 angular
fix             fNPT all npt temp $b $b $(100.0*dt) iso 1 1 $(100.0*dt)
fix             fNPT all npt temp 340 $b $(100.0*dt) iso 1 1 $(100.0*dt)
fix             fNPT all npt temp 340 340 $(100.0*dt) iso 1 1 $(100.0*dt)
fix             fNPT all npt temp 340 340 25 iso 1 1 $(100.0*dt)
fix             fNPT all npt temp 340 340 25 iso 1 1 25
run             1200000
PPPM initialization ...
  G vector (1/distance) = 0.15641191
  grid = 6 6 6
  stencil order = 5
  estimated absolute RMS force accuracy = 0.27062267
  estimated relative force accuracy = 0.00081497212
  3d grid and FFT values/proc = 392 12
Generated 45 of 45 mixed pair_coeff terms from sixthpower/sixthpower mixing rule
Step          Temp          PotEng         E_vdwl         E_coul         E_bond        E_angle        E_dihed        E_impro        Density         Volume
15600102   358.30113      14730.224     -1135.6215      6159.4362      2416.7423      16122.896     -4034.1653     -0.78237263     1.1101684      49079.876
Averages over the last 31 of 62 rows, steps 16220000 to 16800102:
Temp PotEng E_vdwl E_coul E_bond E_angle E_dihed E_impro Density Volume
339.822 14381.6 -1164.92 6152.13 2326.28 15976.6 -4109.41 -0.618856 1.11299 48956.5
Loop time of 4095.31 on 24 procs for 1200000 steps with 4952 atoms

unfix           fNPT
unfix           fMOM
next            a
jump            SELF loop
variable        a loop 26
variable        b equal 600-20*($a-1)
variable        b equal 600-20*(15-1)
fix             fMOM all momentum 100 linear 1 1 1 angular
fix             fNPT all npt temp $b $b $(100.0*dt) iso 1 1 $(100.0*dt)
fix             fNPT all npt temp 320 $b $(100.0*dt) iso 1 1 $(100.0*dt)
fix             fNPT all npt temp 320 320 $(100.0*dt) iso 1 1 $(100.0*dt)
fix             fNPT all npt temp 320 320 25 iso 1 1 $(100.0*dt)
fix             fNPT all npt temp 320 320 25 iso 1 1 25
run             1200000
PPPM initialization ...
  G vector (1/distance) = 0.1564621
  grid = 6 6 6
  stencil order = 5
  estimated absolute RMS force accuracy = 0.27041289
  estimated relative force accuracy = 0.00081434038
  3d grid and FFT values/proc = 392 12
Generated 45 of 45 mixed pair_coeff terms from sixthpower/sixthpower mixing rule
Step          Temp          PotEng         E_vdwl         E_coul         E_bond        E_angle        E_dihed        E_impro        Density         Volume
16800102   339.6946       14331.094     -1172.6396      6146.6212      2326.1734      15972.98      -4147.6078      4.6889621      1.1119347      49001.915
Averages over the last 31 of 62 rows, steps 17420000 to 18000102:
Temp PotEng E_vdwl E_coul E_bond E_angle E_dihed E_impro Density Volume
318.546 14058.7 -1175.15 6149.67 2202.36 15819.3 -4136.4 -1.38566 1.1138 48920.3
Loop time of 4113.65 on 24 procs for 1200000 steps with 4952 atoms

unfix           fNPT
unfix           fMOM
next            a
jump            SELF loop
variable        a loop 26
variable        b equal 600-20*($a-1)
variable        b equal 600-20*(16-1)
fix             fMOM all momentum 100 linear 1 1 1 angular
fix             fNPT all npt temp $b $b $(100.0*dt) iso 1 1 $(100.0*dt)
fix             fNPT all npt temp 300 $b $(100.0*dt) iso 1 1 $(100.0*dt)
fix             fNPT all npt temp 300 300 $(100.0*dt) iso 1 1 $(100.0*dt)
fix             fNPT all npt temp 300 300 25 iso 1 1 $(100.0*dt)
fix             fNPT all npt temp 300 300 25 iso 1 1 25
run             1200000
PPPM initialization ...
  G vector (1/distance) = 0.15643412
  grid = 6 6 6
  stencil order = 5
  estimated absolute RMS force accuracy = 0.27052983
  estimated relative force accuracy = 0.00081469254
  3d grid and FFT values/proc = 392 12
Generated 45 of 45 mixed pair_coeff terms from sixthpower/sixthpower mixing rule
Step          Temp          PotEng         E_vdwl         E_coul         E_bond        E_angle        E_dihed        E_impro        Density         Volume
18000102   323.45548      14019.32      -1176.5796      6139.3175      2222.8279      15786.077     -4151.0057     -2.7468062      1.1109498      49045.359
Averages over the last 31 of 62 rows, steps 18620000 to 19200102:
Temp PotEng E_vdwl E_coul E_bond E_angle E_dihed E_impro Density Volume
299.607 13743.7 -1230.47 6143.06 2091.51 15694.8 -4150.86 -5.21857 1.12164 48579
Loop time of 4121.22 on 24 procs for 1200000 steps with 4952 atoms

unfix           fNPT
unfix           fMOM
next            a
jump            SELF loop
variable        a loop 26
variable        b equal 600-20*($a-1)
variable        b equal 600-20*(17-1)
fix             fMOM all momentum 100 linear 1 1 1 angular
fix             fNPT all npt temp $b $b $(100.0*dt) iso 1 1 $(100.0*dt)
fix             fNPT all npt temp 280 $b $(100.0*dt) iso 1 1 $(100.0*dt)
fix             fNPT all npt temp 280 280 $(100.0*dt) iso 1 1 $(100.0*dt)
fix             fNPT all npt temp 280 280 25 iso 1 1 $(100.0*dt)
fix             fNPT all npt temp 280 280 25 iso 1 1 25
run             1200000
PPPM initialization ...
  G vector (1/distance) = 0.1566721
  grid = 6 6 6
  stencil order = 5
  estimated absolute RMS force accuracy = 0.2695353
  estimated relative force accuracy = 0.00081169754
  3d grid and FFT values/proc = 392 12
Generated 45 of 45 mixed pair_coeff terms from sixthpower/sixthpower mixing rule
Step          Temp          PotEng         E_vdwl         E_coul         E_bond        E_angle        E_dihed        E_impro        Density         Volume
19200102   302.4967       13685.685     -1206.858       6148.0043      2061.4699      15692.328     -4199.4599     -3.0148658      1.1193537      48677.131
Averages over the last 31 of 62 rows, steps 19820000 to 20400102:
Temp PotEng E_vdwl E_coul E_bond E_angle E_dihed E_impro Density Volume
279.591 13435.4 -1257.19 6147.95 1984.73 15543.4 -4169.95 -7.37918 1.12394 48479.2
Loop time of 4124.98 on 24 procs for 1200000 steps with 4952 atoms

unfix           fNPT
unfix           fMOM
next            a
jump            SELF loop
variable        a loop 26
variable        b equal 600-20*($a-1)
variable        b equal 600-20*(18-1)
fix             fMOM all momentum 100 linear 1 1 1 angular
fix             fNPT all npt temp $b $b $(100.0*dt) iso 1 1 $(100.0*dt)
fix             fNPT all npt temp 260 $b $(100.0*dt) iso 1 1 $(100.0*dt)
fix             fNPT all npt temp 260 260 $(100.0*dt) iso 1 1 $(100.0*dt)
fix             fNPT all npt temp 260 260 25 iso 1 1 $(100.0*dt)
fix             fNPT all npt temp 260 260 25 iso 1 1 25
run             1200000
PPPM initialization ...
  G vector (1/distance) = 0.15681891
  grid = 6 6 6
  stencil order = 5
  estimated absolute RMS force accuracy = 0.26892186
  estimated relative force accuracy = 0.00080985019
  3d grid and FFT values/proc = 392 12
Generated 45 of 45 mixed pair_coeff terms from sixthpower/sixthpower mixing rule
Step          Temp          PotEng         E_vdwl         E_coul         E_bond        E_angle        E_dihed        E_impro        Density         Volume
20400102   284.25966      13436.086     -1205.5516      6160.7111      1970.0925      15566.064     -4233.8829     -10.139115      1.1245686      48451.404
Averages over the last 31 of 62 rows, steps 21020000 to 21600102:
Temp PotEng E_vdwl E_coul E_bond E_angle E_dihed E_impro Density Volume
260.529 13143.8 -1287.66 6152.19 1851.54 15423.6 -4174.29 -11.5092 1.12999 48219.3
Loop time of 4129.17 on 24 procs for 1200000 steps with 4952 atoms

unfix           fNPT
unfix           fMOM
next            a
jump            SELF loop
variable        a loop 26
variable        b equal 600-20*($a-1)
variable        b equal 600-20*(19-1)
fix             fMOM all momentum 100 linear 1 1 1 angular
fix             fNPT all npt temp $b $b $(100.0*dt) iso 1 1 $(100.0*dt)
fix             fNPT all npt temp 240 $b $(100.0*dt) iso 1 1 $(100.0*dt)
fix             fNPT all npt temp 240 240 $(100.0*dt) iso 1 1 $(100.0*dt)
fix             fNPT all npt temp 240 240 25 iso 1 1 $(100.0*dt)
fix             fNPT all npt temp 240 240 25 iso 1 1 25
run             1200000
PPPM initialization ...
  G vector (1/distance) = 0.15697365
  grid = 6 6 6
  stencil order = 5
  estimated absolute RMS force accuracy = 0.26827542
  estimated relative force accuracy = 0.00080790345
  3d grid and FFT values/proc = 392 12
Generated 45 of 45 mixed pair_coeff terms from sixthpower/sixthpower mixing rule
Step          Temp          PotEng         E_vdwl         E_coul         E_bond        E_angle        E_dihed        E_impro        Density         Volume
21600102   254.7922       13104.434     -1312.2455      6158.9785      1815.8613      15446.445     -4174.528      -14.71135       1.1300901      48214.675
Averages over the last 31 of 62 rows, steps 22220000 to 22800102:
Temp PotEng E_vdwl E_coul E_bond E_angle E_dihed E_impro Density Volume
239.163 12826.2 -1322.44 6150.01 1743.41 15287.2 -4203.13 -13.2944 1.133 48091
Loop time of 4127.49 on 24 procs for 1200000 steps with 4952 atoms

unfix           fNPT
unfix           fMOM
next            a
jump            SELF loop
variable        a loop 26
variable        b equal 600-20*($a-1)
variable        b equal 600-20*(20-1)
fix             fMOM all momentum 100 linear 1 1 1 angular
fix             fNPT all npt temp $b $b $(100.0*dt) iso 1 1 $(100.0*dt)
fix             fNPT all npt temp 220 $b $(100.0*dt) iso 1 1 $(100.0*dt)
fix             fNPT all npt temp 220 220 $(100.0*dt) iso 1 1 $(100.0*dt)
fix             fNPT all npt temp 220 220 25 iso 1 1 $(100.0*dt)
fix             fNPT all npt temp 220 220 25 iso 1 1 25
run             1200000
PPPM initialization ...
  G vector (1/distance) = 0.15710836
  grid = 6 6 6
  stencil order = 5
  estimated absolute RMS force accuracy = 0.26771275
  estimated relative force accuracy = 0.000806209
  3d grid and FFT values/proc = 392 12
Generated 45 of 45 mixed pair_coeff terms from sixthpower/sixthpower mixing rule
Step          Temp          PotEng         E_vdwl         E_coul         E_bond        E_angle        E_dihed        E_impro        Density         Volume
22800102   239.40355      12892.838     -1331.9278      6156.6711      1738.1322      15366.671     -4213.6295     -3.2231203      1.1349179      48009.576
Averages over the last 31 of 62 rows, steps 23420000 to 24000102:
Temp PotEng E_vdwl E_coul E_bond E_angle E_dihed E_impro Density Volume
219.069 12525.8 -1361.66 6155.66 1623.66 15159.9 -4217.65 -14.3938 1.13662 47938.1
Loop time of 4127.28 on 24 procs for 1200000 steps with 4952 atoms
