read_data           tes.data
Reading data file ...
  orthogonal box = (0 0 0) to (158.5 158.5 100)
  reading atoms ...
  100 atoms
  scanning bonds ...
  scanning angles ...
  scanning dihedrals ...
  reading bonds ...
  99 bonds
  reading angles ...
  98 angles
  reading dihedrals ...
  97 dihedrals
Finding 1-2 1-3 1-4 neighbors ...
     2 = max # of 1-2 neighbors
     2 = max # of 1-3 neighbors
     4 = max # of 1-4 neighbors
     6 = max # of special neighbors
special_bonds lj/coul 0.0 0.0 0.0

 # Dreiding potential information
 neighbor            0.4 bin
 neigh_modify        every 10 one 10000
 bond_style          harmonic
 bond_coeff          1 350 1.53
 angle_style         harmonic
 angle_coeff         1 60 109.5
 dihedral_style      multi/harmonic
 dihedral_coeff      1 1.73 -4.49 0.776 6.99 0.0
 pair_style          lj/cut 10.5
 pair_coeff          1 1 0.112 4.01 10.5

minimize 0.0 1.0e-8 1000 100000
Generated 0 of 0 mixed pair_coeff terms from geometric mixing rule
Step          Temp          E_pair         E_mol          TotEng         Press
0   0             -0.53878186     30648.143      30647.604     -1266.3614
Loop time of 0.0434223 on 6 procs for 1000 steps with 100 atoms

Minimization stats:
  Stopping criterion = max iterations
  Energy initial, next-to-last, final =
  Force two-norm initial, final = 6079.6618 9.3703391
  Force max component initial, final = 1198.5053 2.5283681
  Final line search alpha, max atom move = 0.019769479 0.049984519
  Iterations, force evaluations = 1000 2393

 bond_style          morse
 bond_coeff          1  85 2.2 1.53
 fix                 2 all nvt temp 300 300 100
 timestep            1.0

group sub id 1
1 atoms in group sub
group sub2 id 100
1 atoms in group sub2
fix new sub move linear 0.001 0 0
fix new2 sub2 move linear -0.001 0 0
fix breakk all bond/break 10 1 4.0

 thermo_style        custom step temp  f_breakk[*]
thermo              100

dump 4a all custom 1000 dump.pos id type x y z

 run 1000000
Generated 0 of 0 mixed pair_coeff terms from geometric mixing rule
Step          Temp       f_breakk[1]    f_breakk[2]
1000   0              0              0
Averages over the last 3479 of 6957 rows, steps 348800 to 696600:
Temp f_breakk[1] f_breakk[2]
300.228 0 2
    696700   323.87806
