LAMMPS (22 Dec 2022)
# PREREQUISITES:
#
#     You must use moltemplate.sh to create 3 files:
#        system.data  system.in.init  system.in.settings
#     (Follow the instructions in README_setup.sh,
#      or run the file as a script using ./README_setup.sh)

# ------------------------------- Initialization Section --------------------

units real
atom_style full
pair_style lj/class2/coul/long 10.0 10.0
bond_style class2
angle_style class2
dihedral_style class2
improper_style class2
kspace_style pppm/cg 0.001

pair_modify     mix sixthpower tail yes
special_bonds   lj/coul 0 0 1

# ------------------------------- Atom Definition Section -------------------

read_data       "reacted_lmp.data"
Reading data file ...
  orthogonal box = (5.6756746 5.6756746 5.6756746) to (45.16714 45.16714 45.16714)
  reading atoms ...
  5001 atoms
  reading velocities ...
  5001 velocities
  scanning bonds ...
  scanning angles ...
  scanning dihedrals ...
  scanning impropers ...
  reading bonds ...
  5226 bonds
  reading angles ...
  9006 angles
  reading dihedrals ...
  12522 dihedrals
  reading impropers ...
  4266 impropers
Finding 1-2 1-3 1-4 neighbors ...
     4 = max # of 1-2 neighbors
     7 = max # of 1-3 neighbors
    11 = max # of special neighbors

include calc.pram

# Masses

mass		1    12.01115  # c
mass		2    12.01115  # c1
mass		3    12.01115  # c3h
mass		4    12.01115  # cp
mass		5     1.00797  # h
mass		6     1.00797  # hc
mass		7    15.99940  # o3e
mass		8    15.99940  # oc
mass		9    15.99940  # oh

# Potentials

pair_coeff	 1  1    0.05400    4.01000  # c,c
pair_coeff	 2  2    0.05400    4.01000  # c1,c1
pair_coeff	 3  3    0.05400    4.01000  # c3h,c3h
pair_coeff	 4  4    0.06400    4.01000  # cp,cp
pair_coeff	 5  5    0.02000    2.99500  # h,h
pair_coeff	 6  6    0.02000    2.99500  # hc,hc
pair_coeff	 7  7    0.24000    3.53500  # o3e,o3e
pair_coeff	 8  8    0.24000    3.53500  # oc,oc
pair_coeff	 9  9    0.24000    3.53500  # oh,oh

# Bond Coeffs

bond_coeff	 1    1.53000  299.67000 -501.77000  679.81000  # c,c
bond_coeff	 2    1.53000  299.67000 -501.77000  679.81000  # c,c1
bond_coeff	 3    1.53000  299.67000 -501.77000  679.81000  # c,c3h
bond_coeff	 4    1.10100  345.00000 -691.89000  844.60000  # c,hc
bond_coeff	 5    1.42000  400.39540 -835.19510 1313.01420  # c,o3e
bond_coeff	 6    1.42000  400.39540 -835.19510 1313.01420  # c,oc
bond_coeff	 7    1.42000  400.39540 -835.19510 1313.01420  # c,oh
bond_coeff	 8    1.10100  345.00000 -691.89000  844.60000  # c1,hc
bond_coeff	 9    1.42000  400.39540 -835.19510 1313.01420  # c1,oc
bond_coeff	10    1.10100  345.00000 -691.89000  844.60000  # c3h,hc
bond_coeff	11    1.42000  400.39540 -835.19510 1313.01420  # c3h,o3e
bond_coeff	12    1.41700  470.83610 -627.61790 1327.63450  # cp,cp
bond_coeff	13    1.09820  372.82510 -803.45260  894.31730  # cp,hc
bond_coeff	14    1.37680  428.87980 -738.23510 1114.96550  # cp,oc
bond_coeff	15    0.96000  493.84800    0.00000    0.00000  # h,oh

# Angle Coeffs

angle_coeff	 1  112.67000   39.51600   -7.44300   -9.55830  # c,c,c
angle_coeff	 2  110.77000   41.45300  -10.60400    5.12900  # c,c,hc
angle_coeff	 3  111.27000   54.53810   -8.36420  -13.08380  # c,c,oc
angle_coeff	 4  112.67000   39.51600   -7.44300   -9.55830  # c,c1,c
angle_coeff	 5  110.77000   41.45300  -10.60400    5.12900  # c,c1,hc
angle_coeff	 6  111.27000   54.53810   -8.36420  -13.08380  # c,c1,oc
angle_coeff	 7  112.67000   39.51600   -7.44300   -9.55830  # c,c3h,c
angle_coeff	 8  110.77000   41.45300  -10.60400    5.12900  # c,c3h,hc
angle_coeff	 9  111.27000   54.53810   -8.36420  -13.08380  # c,c3h,o3e
angle_coeff	10  104.50000   35.74540  -10.00670   -6.27290  # c,o3e,c3h
angle_coeff	11  104.50000   35.74540  -10.00670   -6.27290  # c,oc,c1
angle_coeff	12  102.96950   38.97390   -6.25950   -8.17100  # c,oc,cp
angle_coeff	13  109.00000   58.50000    0.00000    0.00000  # c,oh,h
angle_coeff	14  110.77000   41.45300  -10.60400    5.12900  # c1,c,hc
angle_coeff	15  111.27000   54.53810   -8.36420  -13.08380  # c1,c,oc
angle_coeff	16  111.27000   54.53810   -8.36420  -13.08380  # c1,c,oh
angle_coeff	17  110.77000   41.45300  -10.60400    5.12900  # c3h,c,hc
angle_coeff	18  111.27000   54.53810   -8.36420  -13.08380  # c3h,c,o3e
angle_coeff	19  111.27000   54.53810   -8.36420  -13.08380  # c3h,c,oc
angle_coeff	20  118.90000   61.02260  -34.99310    0.00000  # cp,cp,cp
angle_coeff	21  117.94000   35.15580  -12.46820    0.00000  # cp,cp,hc
angle_coeff	22  123.42000   73.67810  -21.67870    0.00000  # cp,cp,oc
angle_coeff	23  107.66000   39.64100  -12.92100   -2.43180  # hc,c,hc
angle_coeff	24  108.72800   58.54460  -10.80880  -12.40060  # hc,c,o3e
angle_coeff	25  108.72800   58.54460  -10.80880  -12.40060  # hc,c,oc
angle_coeff	26  108.72800   58.54460  -10.80880  -12.40060  # hc,c,oh
angle_coeff	27  108.72800   58.54460  -10.80880  -12.40060  # hc,c1,oc
angle_coeff	28  108.72800   58.54460  -10.80880  -12.40060  # hc,c3h,o3e

# BondBond Coeffs

angle_coeff	 1 bb    0.00000    1.53000    1.53000  # c,c,c
angle_coeff	 2 bb    3.38720    1.53000    1.10100  # c,c,hc
angle_coeff	 3 bb   11.43180    1.53000    1.42000  # c,c,oc
angle_coeff	 4 bb    0.00000    1.53000    1.53000  # c,c1,c
angle_coeff	 5 bb    3.38720    1.53000    1.10100  # c,c1,hc
angle_coeff	 6 bb   11.43180    1.53000    1.42000  # c,c1,oc
angle_coeff	 7 bb    0.00000    1.53000    1.53000  # c,c3h,c
angle_coeff	 8 bb    3.38720    1.53000    1.10100  # c,c3h,hc
angle_coeff	 9 bb   11.43180    1.53000    1.42000  # c,c3h,o3e
angle_coeff	10 bb   -7.11310    1.42000    1.42000  # c,o3e,c3h
angle_coeff	11 bb   -7.11310    1.42000    1.42000  # c,oc,c1
angle_coeff	12 bb    0.00000    1.42000    1.37680  # c,oc,cp
angle_coeff	13 bb    0.00000    1.42000    0.96000  # c,oh,h
angle_coeff	14 bb    3.38720    1.53000    1.10100  # c1,c,hc
angle_coeff	15 bb   11.43180    1.53000    1.42000  # c1,c,oc
angle_coeff	16 bb   11.43180    1.53000    1.42000  # c1,c,oh
angle_coeff	17 bb    3.38720    1.53000    1.10100  # c3h,c,hc
angle_coeff	18 bb   11.43180    1.53000    1.42000  # c3h,c,o3e
angle_coeff	19 bb   11.43180    1.53000    1.42000  # c3h,c,oc
angle_coeff	20 bb   68.28560    1.41700    1.41700  # cp,cp,cp
angle_coeff	21 bb    1.07950    1.41700    1.09820  # cp,cp,hc
angle_coeff	22 bb   48.47540    1.41700    1.37680  # cp,cp,oc
angle_coeff	23 bb    5.33160    1.10100    1.10100  # hc,c,hc
angle_coeff	24 bb   23.19790    1.10100    1.42000  # hc,c,o3e
angle_coeff	25 bb   23.19790    1.10100    1.42000  # hc,c,oc
angle_coeff	26 bb   23.19790    1.10100    1.42000  # hc,c,oh
angle_coeff	27 bb   23.19790    1.10100    1.42000  # hc,c1,oc
angle_coeff	28 bb   23.19790    1.10100    1.42000  # hc,c3h,o3e

# BondAngle Coeffs

angle_coeff	 1 ba    8.01600    8.01600    1.53000    1.53000  # c,c,c
angle_coeff	 2 ba   20.75400   11.42100    1.53000    1.10100  # c,c,hc
angle_coeff	 3 ba   20.40330    2.68680    1.53000    1.42000  # c,c,oc
angle_coeff	 4 ba    8.01600    8.01600    1.53000    1.53000  # c,c1,c
angle_coeff	 5 ba   20.75400   11.42100    1.53000    1.10100  # c,c1,hc
angle_coeff	 6 ba   20.40330    2.68680    1.53000    1.42000  # c,c1,oc
angle_coeff	 7 ba    8.01600    8.01600    1.53000    1.53000  # c,c3h,c
angle_coeff	 8 ba   20.75400   11.42100    1.53000    1.10100  # c,c3h,hc
angle_coeff	 9 ba    2.68680   20.40330    1.53000    1.42000  # c,c3h,o3e
angle_coeff	10 ba   -2.81120   -2.81120    1.42000    1.42000  # c,o3e,c3h
angle_coeff	11 ba   -2.81120   -2.81120    1.42000    1.42000  # c,oc,c1
angle_coeff	12 ba    0.00000    0.00000    1.42000    1.37680  # c,oc,cp
angle_coeff	13 ba    0.00000    0.00000    1.42000    0.96000  # c,oh,h
angle_coeff	14 ba   11.42100   20.75400    1.53000    1.10100  # c1,c,hc
angle_coeff	15 ba   20.40330    2.68680    1.53000    1.42000  # c1,c,oc
angle_coeff	16 ba   20.40330    2.68680    1.53000    1.42000  # c1,c,oh
angle_coeff	17 ba   11.42100   20.75400    1.53000    1.10100  # c3h,c,hc
angle_coeff	18 ba    2.68680   20.40330    1.53000    1.42000  # c3h,c,o3e
angle_coeff	19 ba   20.40330    2.68680    1.53000    1.42000  # c3h,c,oc
angle_coeff	20 ba   28.87080   28.87080    1.41700    1.41700  # cp,cp,cp
angle_coeff	21 ba   20.00330   24.21830    1.41700    1.09820  # cp,cp,hc
angle_coeff	22 ba   58.47900  107.68060    1.41700    1.37680  # cp,cp,oc
angle_coeff	23 ba   18.10300   18.10300    1.10100    1.10100  # hc,c,hc
angle_coeff	24 ba    4.61890   55.32700    1.10100    1.42000  # hc,c,o3e
angle_coeff	25 ba   55.32700    4.61890    1.10100    1.42000  # hc,c,oc
angle_coeff	26 ba    4.61890   55.32700    1.10100    1.42000  # hc,c,oh
angle_coeff	27 ba   55.32700    4.61890    1.10100    1.42000  # hc,c1,oc
angle_coeff	28 ba    4.61890   55.32700    1.10100    1.42000  # hc,c3h,o3e

# Dihedral Coeffs

dihedral_coeff	 1    0.00000    0.00000    0.03160    0.00000   -0.16810    0.00000  # c,c,c,hc
dihedral_coeff	 2    0.71370    0.00000    0.26600    0.00000   -0.25450    0.00000  # c,c,c,oc
dihedral_coeff	 3   -0.52030    0.00000   -0.30280    0.00000   -0.34500    0.00000  # c,c,oc,c1
dihedral_coeff	 4    0.00000    0.00000    0.00000    0.00000    0.13000  180.00000  # c,c,oc,cp
dihedral_coeff	 5    0.00000    0.00000    0.03160    0.00000   -0.16810    0.00000  # c,c1,c,hc
dihedral_coeff	 6    0.71370    0.00000    0.26600    0.00000   -0.25450    0.00000  # c,c1,c,oc
dihedral_coeff	 7    0.71370    0.00000    0.26600    0.00000   -0.25450    0.00000  # c,c1,c,oh
dihedral_coeff	 8   -0.52030    0.00000   -0.30280    0.00000   -0.34500    0.00000  # c,c1,oc,c
dihedral_coeff	 9    0.00000    0.00000    0.03160    0.00000   -0.16810    0.00000  # c,c3h,c,hc
dihedral_coeff	10    0.71370    0.00000    0.26600    0.00000   -0.25450    0.00000  # c,c3h,c,o3e
dihedral_coeff	11    0.71370    0.00000    0.26600    0.00000   -0.25450    0.00000  # c,c3h,c,oc
dihedral_coeff	12   -0.52030    0.00000   -0.30280    0.00000   -0.34500    0.00000  # c,c3h,o3e,c
dihedral_coeff	13    0.53020    0.00000    0.00000    0.00000   -0.39660    0.00000  # c,o3e,c3h,hc
dihedral_coeff	14    0.53020    0.00000    0.00000    0.00000   -0.39660    0.00000  # c,oc,c1,hc
dihedral_coeff	15    0.00000    0.00000    1.50000    0.00000    0.00000    0.00000  # c,oc,cp,cp
dihedral_coeff	16   -0.52030    0.00000   -0.30280    0.00000   -0.34500    0.00000  # c1,c,oc,c1
dihedral_coeff	17    0.00000    0.00000    0.00000    0.00000    0.13000  180.00000  # c1,c,oc,cp
dihedral_coeff	18    0.00000    0.00000    0.00000    0.00000    0.13000  180.00000  # c1,c,oh,h
dihedral_coeff	19    0.53020    0.00000    0.00000    0.00000   -0.39660    0.00000  # c1,oc,c,hc
dihedral_coeff	20    0.00000    0.00000    0.00000    0.00000    0.13000  180.00000  # c3h,c,oc,cp
dihedral_coeff	21    0.53020    0.00000    0.00000    0.00000   -0.39660    0.00000  # c3h,o3e,c,hc
dihedral_coeff	22    8.36670    0.00000    1.19320    0.00000    0.00000    0.00000  # cp,cp,cp,cp
dihedral_coeff	23    0.00000    0.00000    3.96610    0.00000    0.00000    0.00000  # cp,cp,cp,hc
dihedral_coeff	24    0.00000    0.00000    4.84980    0.00000    0.00000    0.00000  # cp,cp,cp,oc
dihedral_coeff	25    0.95130    0.00000    0.11550    0.00000    0.07200    0.00000  # cp,oc,c,hc
dihedral_coeff	26    0.00000    0.00000    0.00000    0.00000    0.13000  180.00000  # h,oh,c,hc
dihedral_coeff	27   -0.14320    0.00000    0.06170    0.00000   -0.10830    0.00000  # hc,c,c,hc
dihedral_coeff	28   -0.14350    0.00000    0.25300    0.00000   -0.09050    0.00000  # hc,c,c,oc
dihedral_coeff	29   -0.14320    0.00000    0.06170    0.00000   -0.10830    0.00000  # hc,c,c1,hc
dihedral_coeff	30   -0.14350    0.00000    0.25300    0.00000   -0.09050    0.00000  # hc,c,c1,oc
dihedral_coeff	31   -0.14320    0.00000    0.06170    0.00000   -0.10830    0.00000  # hc,c,c3h,hc
dihedral_coeff	32   -0.14350    0.00000    0.25300    0.00000   -0.09050    0.00000  # hc,c,c3h,o3e
dihedral_coeff	33   -0.14350    0.00000    0.25300    0.00000   -0.09050    0.00000  # hc,c1,c,oc
dihedral_coeff	34   -0.14350    0.00000    0.25300    0.00000   -0.09050    0.00000  # hc,c1,c,oh
dihedral_coeff	35   -0.14350    0.00000    0.25300    0.00000   -0.09050    0.00000  # hc,c3h,c,o3e
dihedral_coeff	36   -0.14350    0.00000    0.25300    0.00000   -0.09050    0.00000  # hc,c3h,c,oc
dihedral_coeff	37    0.00000    0.00000    1.87690    0.00000    0.00000    0.00000  # hc,cp,cp,hc
dihedral_coeff	38    0.00000    0.00000    1.72340    0.00000    0.00000    0.00000  # hc,cp,cp,oc
dihedral_coeff	39   -0.18200    0.00000   -0.10840    0.00000   -0.70470    0.00000  # o3e,c3h,c,oc
dihedral_coeff	40   -0.18200    0.00000   -0.10840    0.00000   -0.70470    0.00000  # oc,c,c1,oc
dihedral_coeff	41   -0.18200    0.00000   -0.10840    0.00000   -0.70470    0.00000  # oc,c1,c,oh

# MiddleBondTorsion Coeffs

dihedral_coeff	 1 mbt  -14.87900   -3.65810   -0.31380    1.53000  # c,c,c,hc
dihedral_coeff	 2 mbt  -21.88420   -7.67640   -0.68680    1.53000  # c,c,c,oc
dihedral_coeff	 3 mbt   -5.92880   -2.70070   -0.31750    1.42000  # c,c,oc,c1
dihedral_coeff	 4 mbt    0.00000    0.00000    0.00000    1.42000  # c,c,oc,cp
dihedral_coeff	 5 mbt  -14.87900   -3.65810   -0.31380    1.53000  # c,c1,c,hc
dihedral_coeff	 6 mbt  -21.88420   -7.67640   -0.68680    1.53000  # c,c1,c,oc
dihedral_coeff	 7 mbt  -21.88420   -7.67640   -0.68680    1.53000  # c,c1,c,oh
dihedral_coeff	 8 mbt   -5.92880   -2.70070   -0.31750    1.42000  # c,c1,oc,c
dihedral_coeff	 9 mbt  -14.87900   -3.65810   -0.31380    1.53000  # c,c3h,c,hc
dihedral_coeff	10 mbt  -21.88420   -7.67640   -0.68680    1.53000  # c,c3h,c,o3e
dihedral_coeff	11 mbt  -21.88420   -7.67640   -0.68680    1.53000  # c,c3h,c,oc
dihedral_coeff	12 mbt   -5.92880   -2.70070   -0.31750    1.42000  # c,c3h,o3e,c
dihedral_coeff	13 mbt   -6.80070   -4.65460   -1.41010    1.42000  # c,o3e,c3h,hc
dihedral_coeff	14 mbt   -6.80070   -4.65460   -1.41010    1.42000  # c,oc,c1,hc
dihedral_coeff	15 mbt    0.00000    0.00000    0.00000    1.37680  # c,oc,cp,cp
dihedral_coeff	16 mbt   -5.92880   -2.70070   -0.31750    1.42000  # c1,c,oc,c1
dihedral_coeff	17 mbt    0.00000    0.00000    0.00000    1.42000  # c1,c,oc,cp
dihedral_coeff	18 mbt    0.00000    0.00000    0.00000    1.42000  # c1,c,oh,h
dihedral_coeff	19 mbt   -6.80070   -4.65460   -1.41010    1.42000  # c1,oc,c,hc
dihedral_coeff	20 mbt    0.00000    0.00000    0.00000    1.42000  # c3h,c,oc,cp
dihedral_coeff	21 mbt   -6.80070   -4.65460   -1.41010    1.42000  # c3h,o3e,c,hc
dihedral_coeff	22 mbt   27.59890   -2.31200    0.00000    1.41700  # cp,cp,cp,cp
dihedral_coeff	23 mbt    0.00000   -1.15210    0.00000    1.41700  # cp,cp,cp,hc
dihedral_coeff	24 mbt    0.00000    4.82550    0.00000    1.41700  # cp,cp,cp,oc
dihedral_coeff	25 mbt    0.00000    0.00000    0.00000    1.42000  # cp,oc,c,hc
dihedral_coeff	26 mbt    0.00000    0.00000    0.00000    1.42000  # h,oh,c,hc
dihedral_coeff	27 mbt  -14.26100   -0.53220   -0.48640    1.53000  # hc,c,c,hc
dihedral_coeff	28 mbt  -16.79750   -1.22960   -0.27500    1.53000  # hc,c,c,oc
dihedral_coeff	29 mbt  -14.26100   -0.53220   -0.48640    1.53000  # hc,c,c1,hc
dihedral_coeff	30 mbt  -16.79750   -1.22960   -0.27500    1.53000  # hc,c,c1,oc
dihedral_coeff	31 mbt  -14.26100   -0.53220   -0.48640    1.53000  # hc,c,c3h,hc
dihedral_coeff	32 mbt  -16.79750   -1.22960   -0.27500    1.53000  # hc,c,c3h,o3e
dihedral_coeff	33 mbt  -16.79750   -1.22960   -0.27500    1.53000  # hc,c1,c,oc
dihedral_coeff	34 mbt  -16.79750   -1.22960   -0.27500    1.53000  # hc,c1,c,oh
dihedral_coeff	35 mbt  -16.79750   -1.22960   -0.27500    1.53000  # hc,c3h,c,o3e
dihedral_coeff	36 mbt  -16.79750   -1.22960   -0.27500    1.53000  # hc,c3h,c,oc
dihedral_coeff	37 mbt    0.00000    4.82280    0.00000    1.41700  # hc,cp,cp,hc
dihedral_coeff	38 mbt    0.00000    5.54320    0.00000    1.41700  # hc,cp,cp,oc
dihedral_coeff	39 mbt  -17.25850   -3.61570   -0.83640    1.53000  # o3e,c3h,c,oc
dihedral_coeff	40 mbt  -17.25850   -3.61570   -0.83640    1.53000  # oc,c,c1,oc
dihedral_coeff	41 mbt  -17.25850   -3.61570   -0.83640    1.53000  # oc,c1,c,oh

# EndBondTorsion Coeffs

dihedral_coeff	 1 ebt    0.24860    0.24220   -0.09250    0.08140    0.05910    0.22190    1.53000    1.10100  # c,c,c,hc
dihedral_coeff	 2 ebt    1.15380    0.84090   -0.91380   -0.31900    0.44110   -0.71740    1.53000    1.42000  # c,c,c,oc
dihedral_coeff	 3 ebt   -0.24560    1.05170   -0.77950    0.47410    1.26350    0.55760    1.53000    1.42000  # c,c,oc,c1
dihedral_coeff	 4 ebt    0.00000    0.00000    0.00000    0.00000    0.00000    0.00000    1.53000    1.37680  # c,c,oc,cp
dihedral_coeff	 5 ebt    0.24860    0.24220   -0.09250    0.08140    0.05910    0.22190    1.53000    1.10100  # c,c1,c,hc
dihedral_coeff	 6 ebt    1.15380    0.84090   -0.91380   -0.31900    0.44110   -0.71740    1.53000    1.42000  # c,c1,c,oc
dihedral_coeff	 7 ebt   -0.31900    0.44110   -0.71740    1.15380    0.84090   -0.91380    1.53000    1.42000  # c,c1,c,oh
dihedral_coeff	 8 ebt    0.47410    1.26350    0.55760   -0.24560    1.05170   -0.77950    1.53000    1.42000  # c,c1,oc,c
dihedral_coeff	 9 ebt    0.24860    0.24220   -0.09250    0.08140    0.05910    0.22190    1.53000    1.10100  # c,c3h,c,hc
dihedral_coeff	10 ebt   -0.31900    0.44110   -0.71740    1.15380    0.84090   -0.91380    1.53000    1.42000  # c,c3h,c,o3e
dihedral_coeff	11 ebt    1.15380    0.84090   -0.91380   -0.31900    0.44110   -0.71740    1.53000    1.42000  # c,c3h,c,oc
dihedral_coeff	12 ebt   -0.24560    1.05170   -0.77950    0.47410    1.26350    0.55760    1.53000    1.42000  # c,c3h,o3e,c
dihedral_coeff	13 ebt   -0.16200    0.15640   -1.14080   -0.60540    1.33390    0.96480    1.42000    1.10100  # c,o3e,c3h,hc
dihedral_coeff	14 ebt   -0.16200    0.15640   -1.14080   -0.60540    1.33390    0.96480    1.42000    1.10100  # c,oc,c1,hc
dihedral_coeff	15 ebt    0.00000    0.00000    0.00000    0.00000    0.00000    0.00000    1.42000    1.41700  # c,oc,cp,cp
dihedral_coeff	16 ebt    0.47410    1.26350    0.55760   -0.24560    1.05170   -0.77950    1.53000    1.42000  # c1,c,oc,c1
dihedral_coeff	17 ebt    0.00000    0.00000    0.00000    0.00000    0.00000    0.00000    1.53000    1.37680  # c1,c,oc,cp
dihedral_coeff	18 ebt    0.00000    0.00000    0.00000    0.00000    0.00000    0.00000    1.53000    0.96000  # c1,c,oh,h
dihedral_coeff	19 ebt   -0.60540    1.33390    0.96480   -0.16200    0.15640   -1.14080    1.42000    1.10100  # c1,oc,c,hc
dihedral_coeff	20 ebt    0.00000    0.00000    0.00000    0.00000    0.00000    0.00000    1.53000    1.37680  # c3h,c,oc,cp
dihedral_coeff	21 ebt   -0.60540    1.33390    0.96480   -0.16200    0.15640   -1.14080    1.42000    1.10100  # c3h,o3e,c,hc
dihedral_coeff	22 ebt   -0.11850    6.32040    0.00000   -0.11850    6.32040    0.00000    1.41700    1.41700  # cp,cp,cp,cp
dihedral_coeff	23 ebt    0.00000   -6.89580    0.00000    0.00000   -0.46690    0.00000    1.41700    1.09820  # cp,cp,cp,hc
dihedral_coeff	24 ebt    0.00000    0.26550    0.00000    0.00000    4.89050    0.00000    1.41700    1.37680  # cp,cp,cp,oc
dihedral_coeff	25 ebt    0.00000    0.00000    0.00000    0.00000    0.00000    0.00000    1.37680    1.10100  # cp,oc,c,hc
dihedral_coeff	26 ebt    0.00000    0.00000    0.00000    0.00000    0.00000    0.00000    0.96000    1.10100  # h,oh,c,hc
dihedral_coeff	27 ebt    0.21300    0.31200    0.07770    0.21300    0.31200    0.07770    1.10100    1.10100  # hc,c,c,hc
dihedral_coeff	28 ebt    0.59030    0.66690    0.85840    0.96810    0.95510    0.04360    1.10100    1.42000  # hc,c,c,oc
dihedral_coeff	29 ebt    0.21300    0.31200    0.07770    0.21300    0.31200    0.07770    1.10100    1.10100  # hc,c,c1,hc
dihedral_coeff	30 ebt    0.59030    0.66690    0.85840    0.96810    0.95510    0.04360    1.10100    1.42000  # hc,c,c1,oc
dihedral_coeff	31 ebt    0.21300    0.31200    0.07770    0.21300    0.31200    0.07770    1.10100    1.10100  # hc,c,c3h,hc
dihedral_coeff	32 ebt    0.96810    0.95510    0.04360    0.59030    0.66690    0.85840    1.10100    1.42000  # hc,c,c3h,o3e
dihedral_coeff	33 ebt    0.59030    0.66690    0.85840    0.96810    0.95510    0.04360    1.10100    1.42000  # hc,c1,c,oc
dihedral_coeff	34 ebt    0.96810    0.95510    0.04360    0.59030    0.66690    0.85840    1.10100    1.42000  # hc,c1,c,oh
dihedral_coeff	35 ebt    0.96810    0.95510    0.04360    0.59030    0.66690    0.85840    1.10100    1.42000  # hc,c3h,c,o3e
dihedral_coeff	36 ebt    0.59030    0.66690    0.85840    0.96810    0.95510    0.04360    1.10100    1.42000  # hc,c3h,c,oc
dihedral_coeff	37 ebt    0.00000   -0.68900    0.00000    0.00000   -0.68900    0.00000    1.09820    1.09820  # hc,cp,cp,hc
dihedral_coeff	38 ebt    0.00000    4.26410    0.00000    0.00000   -1.58670    0.00000    1.09820    1.37680  # hc,cp,cp,oc
dihedral_coeff	39 ebt    1.01650    0.75530   -0.46090    1.01650    0.75530   -0.46090    1.42000    1.42000  # o3e,c3h,c,oc
dihedral_coeff	40 ebt    1.01650    0.75530   -0.46090    1.01650    0.75530   -0.46090    1.42000    1.42000  # oc,c,c1,oc
dihedral_coeff	41 ebt    1.01650    0.75530   -0.46090    1.01650    0.75530   -0.46090    1.42000    1.42000  # oc,c1,c,oh

# AngleTorsion Coeffs

dihedral_coeff	 1 at   -0.24540    0.00000   -0.11360    0.31130    0.45160   -0.19880  112.67000  110.77000  # c,c,c,hc
dihedral_coeff	 2 at    0.96720   -0.75660   -1.23310    0.56230   -0.30410   -0.40150  112.67000  111.27000  # c,c,c,oc
dihedral_coeff	 3 at   -2.74660    1.48770   -0.89550    0.56760    0.94500    0.07030  111.27000  104.50000  # c,c,oc,c1
dihedral_coeff	 4 at    0.00000    0.00000    0.00000    0.00000    0.00000    0.00000  111.27000  102.96950  # c,c,oc,cp
dihedral_coeff	 5 at   -0.24540    0.00000   -0.11360    0.31130    0.45160   -0.19880  112.67000  110.77000  # c,c1,c,hc
dihedral_coeff	 6 at    0.96720   -0.75660   -1.23310    0.56230   -0.30410   -0.40150  112.67000  111.27000  # c,c1,c,oc
dihedral_coeff	 7 at    0.56230   -0.30410   -0.40150    0.96720   -0.75660   -1.23310  112.67000  111.27000  # c,c1,c,oh
dihedral_coeff	 8 at    0.56760    0.94500    0.07030   -2.74660    1.48770   -0.89550  111.27000  104.50000  # c,c1,oc,c
dihedral_coeff	 9 at   -0.24540    0.00000   -0.11360    0.31130    0.45160   -0.19880  112.67000  110.77000  # c,c3h,c,hc
dihedral_coeff	10 at    0.56230   -0.30410   -0.40150    0.96720   -0.75660   -1.23310  112.67000  111.27000  # c,c3h,c,o3e
dihedral_coeff	11 at    0.96720   -0.75660   -1.23310    0.56230   -0.30410   -0.40150  112.67000  111.27000  # c,c3h,c,oc
dihedral_coeff	12 at   -2.74660    1.48770   -0.89550    0.56760    0.94500    0.07030  111.27000  104.50000  # c,c3h,o3e,c
dihedral_coeff	13 at   -0.77770    0.43400   -0.66530   -1.82340    1.63930    0.51440  104.50000  108.72800  # c,o3e,c3h,hc
dihedral_coeff	14 at   -0.77770    0.43400   -0.66530   -1.82340    1.63930    0.51440  104.50000  108.72800  # c,oc,c1,hc
dihedral_coeff	15 at    0.00000    0.00000    0.00000    0.00000    0.00000    0.00000  102.96950  123.42000  # c,oc,cp,cp
dihedral_coeff	16 at    0.56760    0.94500    0.07030   -2.74660    1.48770   -0.89550  111.27000  104.50000  # c1,c,oc,c1
dihedral_coeff	17 at    0.00000    0.00000    0.00000    0.00000    0.00000    0.00000  111.27000  102.96950  # c1,c,oc,cp
dihedral_coeff	18 at    0.00000    0.00000    0.00000    0.00000    0.00000    0.00000  111.27000  109.00000  # c1,c,oh,h
dihedral_coeff	19 at   -1.82340    1.63930    0.51440   -0.77770    0.43400   -0.66530  104.50000  108.72800  # c1,oc,c,hc
dihedral_coeff	20 at    0.00000    0.00000    0.00000    0.00000    0.00000    0.00000  111.27000  102.96950  # c3h,c,oc,cp
dihedral_coeff	21 at   -1.82340    1.63930    0.51440   -0.77770    0.43400   -0.66530  104.50000  108.72800  # c3h,o3e,c,hc
dihedral_coeff	22 at    1.97670    1.02390    0.00000    1.97670    1.02390    0.00000  118.90000  118.90000  # cp,cp,cp,cp
dihedral_coeff	23 at    0.00000    2.50140    0.00000    0.00000    2.71470    0.00000  118.90000  117.94000  # cp,cp,cp,hc
dihedral_coeff	24 at    0.00000   10.01550    0.00000    0.00000    1.74040    0.00000  118.90000  123.42000  # cp,cp,cp,oc
dihedral_coeff	25 at    0.00000    0.00000    0.00000    0.00000    0.00000    0.00000  102.96950  108.72800  # cp,oc,c,hc
dihedral_coeff	26 at    0.00000    0.00000    0.00000    0.00000    0.00000    0.00000  109.00000  108.72800  # h,oh,c,hc
dihedral_coeff	27 at   -0.80850    0.55690   -0.24660   -0.80850    0.55690   -0.24660  110.77000  110.77000  # hc,c,c,hc
dihedral_coeff	28 at   -0.18920    0.49180    0.72730    2.36680    2.49200   -1.01220  110.77000  111.27000  # hc,c,c,oc
dihedral_coeff	29 at   -0.80850    0.55690   -0.24660   -0.80850    0.55690   -0.24660  110.77000  110.77000  # hc,c,c1,hc
dihedral_coeff	30 at   -0.18920    0.49180    0.72730    2.36680    2.49200   -1.01220  110.77000  111.27000  # hc,c,c1,oc
dihedral_coeff	31 at   -0.80850    0.55690   -0.24660   -0.80850    0.55690   -0.24660  110.77000  110.77000  # hc,c,c3h,hc
dihedral_coeff	32 at    2.36680    2.49200   -1.01220   -0.18920    0.49180    0.72730  110.77000  111.27000  # hc,c,c3h,o3e
dihedral_coeff	33 at   -0.18920    0.49180    0.72730    2.36680    2.49200   -1.01220  110.77000  111.27000  # hc,c1,c,oc
dihedral_coeff	34 at    2.36680    2.49200   -1.01220   -0.18920    0.49180    0.72730  110.77000  111.27000  # hc,c1,c,oh
dihedral_coeff	35 at    2.36680    2.49200   -1.01220   -0.18920    0.49180    0.72730  110.77000  111.27000  # hc,c3h,c,o3e
dihedral_coeff	36 at   -0.18920    0.49180    0.72730    2.36680    2.49200   -1.01220  110.77000  111.27000  # hc,c3h,c,oc
dihedral_coeff	37 at    0.00000    2.45010    0.00000    0.00000    2.45010    0.00000  117.94000  117.94000  # hc,cp,cp,hc
dihedral_coeff	38 at    0.00000    2.57060    0.00000    0.00000    1.87290    0.00000  117.94000  123.42000  # hc,cp,cp,oc
dihedral_coeff	39 at    0.55110    0.97370   -0.66730    0.55110    0.97370   -0.66730  111.27000  111.27000  # o3e,c3h,c,oc
dihedral_coeff	40 at    0.55110    0.97370   -0.66730    0.55110    0.97370   -0.66730  111.27000  111.27000  # oc,c,c1,oc
dihedral_coeff	41 at    0.55110    0.97370   -0.66730    0.55110    0.97370   -0.66730  111.27000  111.27000  # oc,c1,c,oh

# AngleAngleTorsion Coeffs

dihedral_coeff	 1 aat  -16.16400  112.67000  110.77000  # c,c,c,hc
dihedral_coeff	 2 aat  -29.04200  112.67000  111.27000  # c,c,c,oc
dihedral_coeff	 3 aat  -19.00590  111.27000  104.50000  # c,c,oc,c1
dihedral_coeff	 4 aat    0.00000  111.27000  102.96950  # c,c,oc,cp
dihedral_coeff	 5 aat  -16.16400  112.67000  110.77000  # c,c1,c,hc
dihedral_coeff	 6 aat  -29.04200  112.67000  111.27000  # c,c1,c,oc
dihedral_coeff	 7 aat  -29.04200  112.67000  111.27000  # c,c1,c,oh
dihedral_coeff	 8 aat  -19.00590  111.27000  104.50000  # c,c1,oc,c
dihedral_coeff	 9 aat  -16.16400  112.67000  110.77000  # c,c3h,c,hc
dihedral_coeff	10 aat  -29.04200  112.67000  111.27000  # c,c3h,c,o3e
dihedral_coeff	11 aat  -29.04200  112.67000  111.27000  # c,c3h,c,oc
dihedral_coeff	12 aat  -19.00590  111.27000  104.50000  # c,c3h,o3e,c
dihedral_coeff	13 aat  -16.44380  104.50000  108.72800  # c,o3e,c3h,hc
dihedral_coeff	14 aat  -16.44380  104.50000  108.72800  # c,oc,c1,hc
dihedral_coeff	15 aat    0.00000  102.96950  123.42000  # c,oc,cp,cp
dihedral_coeff	16 aat  -19.00590  111.27000  104.50000  # c1,c,oc,c1
dihedral_coeff	17 aat    0.00000  111.27000  102.96950  # c1,c,oc,cp
dihedral_coeff	18 aat    0.00000  111.27000  109.00000  # c1,c,oh,h
dihedral_coeff	19 aat  -16.44380  104.50000  108.72800  # c1,oc,c,hc
dihedral_coeff	20 aat    0.00000  111.27000  102.96950  # c3h,c,oc,cp
dihedral_coeff	21 aat  -16.44380  104.50000  108.72800  # c3h,o3e,c,hc
dihedral_coeff	22 aat    0.00000  118.90000  118.90000  # cp,cp,cp,cp
dihedral_coeff	23 aat   -4.81410  118.90000  117.94000  # cp,cp,cp,hc
dihedral_coeff	24 aat  -21.02470  118.90000  123.42000  # cp,cp,cp,oc
dihedral_coeff	25 aat    0.00000  102.96950  108.72800  # cp,oc,c,hc
dihedral_coeff	26 aat    0.00000  109.00000  108.72800  # h,oh,c,hc
dihedral_coeff	27 aat  -12.56400  110.77000  110.77000  # hc,c,c,hc
dihedral_coeff	28 aat  -20.20060  110.77000  111.27000  # hc,c,c,oc
dihedral_coeff	29 aat  -12.56400  110.77000  110.77000  # hc,c,c1,hc
dihedral_coeff	30 aat  -20.20060  110.77000  111.27000  # hc,c,c1,oc
dihedral_coeff	31 aat  -12.56400  110.77000  110.77000  # hc,c,c3h,hc
dihedral_coeff	32 aat  -20.20060  110.77000  111.27000  # hc,c,c3h,o3e
dihedral_coeff	33 aat  -20.20060  110.77000  111.27000  # hc,c1,c,oc
dihedral_coeff	34 aat  -20.20060  110.77000  111.27000  # hc,c1,c,oh
dihedral_coeff	35 aat  -20.20060  110.77000  111.27000  # hc,c3h,c,o3e
dihedral_coeff	36 aat  -20.20060  110.77000  111.27000  # hc,c3h,c,oc
dihedral_coeff	37 aat    0.35980  117.94000  117.94000  # hc,cp,cp,hc
dihedral_coeff	38 aat    4.22960  117.94000  123.42000  # hc,cp,cp,oc
dihedral_coeff	39 aat  -14.04840  111.27000  111.27000  # o3e,c3h,c,oc
dihedral_coeff	40 aat  -14.04840  111.27000  111.27000  # oc,c,c1,oc
dihedral_coeff	41 aat  -14.04840  111.27000  111.27000  # oc,c1,c,oh

# BondBond13 Coeffs

dihedral_coeff	 1 bb13    0.00000    1.53000    1.10100  # c,c,c,hc
dihedral_coeff	 2 bb13    0.00000    1.53000    1.42000  # c,c,c,oc
dihedral_coeff	 3 bb13    0.00000    1.53000    1.42000  # c,c,oc,c1
dihedral_coeff	 4 bb13    0.00000    1.53000    1.37680  # c,c,oc,cp
dihedral_coeff	 5 bb13    0.00000    1.53000    1.10100  # c,c1,c,hc
dihedral_coeff	 6 bb13    0.00000    1.53000    1.42000  # c,c1,c,oc
dihedral_coeff	 7 bb13    0.00000    1.53000    1.42000  # c,c1,c,oh
dihedral_coeff	 8 bb13    0.00000    1.53000    1.42000  # c,c1,oc,c
dihedral_coeff	 9 bb13    0.00000    1.53000    1.10100  # c,c3h,c,hc
dihedral_coeff	10 bb13    0.00000    1.53000    1.42000  # c,c3h,c,o3e
dihedral_coeff	11 bb13    0.00000    1.53000    1.42000  # c,c3h,c,oc
dihedral_coeff	12 bb13    0.00000    1.53000    1.42000  # c,c3h,o3e,c
dihedral_coeff	13 bb13    0.00000    1.42000    1.10100  # c,o3e,c3h,hc
dihedral_coeff	14 bb13    0.00000    1.42000    1.10100  # c,oc,c1,hc
dihedral_coeff	15 bb13    0.00000    1.42000    1.41700  # c,oc,cp,cp
dihedral_coeff	16 bb13    0.00000    1.53000    1.42000  # c1,c,oc,c1
dihedral_coeff	17 bb13    0.00000    1.53000    1.37680  # c1,c,oc,cp
dihedral_coeff	18 bb13    0.00000    1.53000    0.96000  # c1,c,oh,h
dihedral_coeff	19 bb13    0.00000    1.42000    1.10100  # c1,oc,c,hc
dihedral_coeff	20 bb13    0.00000    1.53000    1.37680  # c3h,c,oc,cp
dihedral_coeff	21 bb13    0.00000    1.42000    1.10100  # c3h,o3e,c,hc
dihedral_coeff	22 bb13   53.00000    1.41700    1.41700  # cp,cp,cp,cp
dihedral_coeff	23 bb13   -6.27410    1.41700    1.09820  # cp,cp,cp,hc
dihedral_coeff	24 bb13   -2.24360    1.41700    1.37680  # cp,cp,cp,oc
dihedral_coeff	25 bb13    0.00000    1.37680    1.10100  # cp,oc,c,hc
dihedral_coeff	26 bb13    0.00000    0.96000    1.10100  # h,oh,c,hc
dihedral_coeff	27 bb13    0.00000    1.10100    1.10100  # hc,c,c,hc
dihedral_coeff	28 bb13    0.00000    1.10100    1.42000  # hc,c,c,oc
dihedral_coeff	29 bb13    0.00000    1.10100    1.10100  # hc,c,c1,hc
dihedral_coeff	30 bb13    0.00000    1.10100    1.42000  # hc,c,c1,oc
dihedral_coeff	31 bb13    0.00000    1.10100    1.10100  # hc,c,c3h,hc
dihedral_coeff	32 bb13    0.00000    1.10100    1.42000  # hc,c,c3h,o3e
dihedral_coeff	33 bb13    0.00000    1.10100    1.42000  # hc,c1,c,oc
dihedral_coeff	34 bb13    0.00000    1.10100    1.42000  # hc,c1,c,oh
dihedral_coeff	35 bb13    0.00000    1.10100    1.42000  # hc,c3h,c,o3e
dihedral_coeff	36 bb13    0.00000    1.10100    1.42000  # hc,c3h,c,oc
dihedral_coeff	37 bb13   -1.70770    1.09820    1.09820  # hc,cp,cp,hc
dihedral_coeff	38 bb13    2.05170    1.09820    1.37680  # hc,cp,cp,oc
dihedral_coeff	39 bb13    0.00000    1.42000    1.42000  # o3e,c3h,c,oc
dihedral_coeff	40 bb13    0.00000    1.42000    1.42000  # oc,c,c1,oc
dihedral_coeff	41 bb13    0.00000    1.42000    1.42000  # oc,c1,c,oh

# Improper Coeffs

improper_coeff	 1    0.00000    0.00000  # c,c,c,hc
improper_coeff	 2    0.00000    0.00000  # c,c,hc,hc
improper_coeff	 3    0.00000    0.00000  # c,c,hc,oc
improper_coeff	 4    0.00000    0.00000  # c,c,oc,hc
improper_coeff	 5    0.00000    0.00000  # c,c1,hc,hc
improper_coeff	 6    0.00000    0.00000  # c,c1,hc,oc
improper_coeff	 7    0.00000    0.00000  # c,c1,hc,oh
improper_coeff	 8    0.00000    0.00000  # c,c1,oc,hc
improper_coeff	 9    0.00000    0.00000  # c,c3h,hc,hc
improper_coeff	10    0.00000    0.00000  # c,c3h,hc,oc
improper_coeff	11    0.00000    0.00000  # c,c3h,o3e,hc
improper_coeff	12    0.00000    0.00000  # c,hc,hc,o3e
improper_coeff	13    0.00000    0.00000  # c,hc,hc,oc
improper_coeff	14    0.00000    0.00000  # c,hc,hc,oh
improper_coeff	15    0.00000    0.00000  # c1,c,c,hc
improper_coeff	16    0.00000    0.00000  # c1,c,c,oc
improper_coeff	17    0.00000    0.00000  # c1,c,oc,hc
improper_coeff	18    0.00000    0.00000  # c3h,c,c,hc
improper_coeff	19    0.00000    0.00000  # c3h,c,c,o3e
improper_coeff	20    0.00000    0.00000  # c3h,c,o3e,hc
improper_coeff	21    4.89120    0.00000  # cp,cp,cp,hc
improper_coeff	22   13.04210    0.00000  # cp,cp,cp,oc

# AngleAngle Coeffs

improper_coeff	 1 aa   -1.31990   -1.31990    0.11840  112.67000  110.77000  110.77000  # c,c,c,hc
improper_coeff	 2 aa    0.27380   -0.48250    0.27380  110.77000  110.77000  107.66000  # c,c,hc,hc
improper_coeff	 3 aa    0.00000    0.00000    0.16890  110.77000  111.27000  108.72800  # c,c,hc,oc
improper_coeff	 4 aa    0.16890    0.00000    0.00000  111.27000  110.77000  108.72800  # c,c,oc,hc
improper_coeff	 5 aa    0.00000   -0.48250    0.00000  110.77000  110.77000  107.66000  # c,c1,hc,hc
improper_coeff	 6 aa    0.00000    0.00000    0.00000  110.77000  111.27000  108.72800  # c,c1,hc,oc
improper_coeff	 7 aa    0.00000    2.59260    0.00000  110.77000  111.27000  108.72800  # c,c1,hc,oh
improper_coeff	 8 aa    0.00000    0.00000    0.00000  111.27000  110.77000  108.72800  # c,c1,oc,hc
improper_coeff	 9 aa    0.00000   -0.48250    0.00000  110.77000  110.77000  107.66000  # c,c3h,hc,hc
improper_coeff	10 aa    0.00000    0.00000    0.00000  110.77000  111.27000  108.72800  # c,c3h,hc,oc
improper_coeff	11 aa    0.00000    2.59260    3.91770  111.27000  110.77000  108.72800  # c,c3h,o3e,hc
improper_coeff	12 aa    2.42590    2.42590    2.12830  107.66000  108.72800  108.72800  # c,hc,hc,o3e
improper_coeff	13 aa    0.00000    0.00000    2.12830  107.66000  108.72800  108.72800  # c,hc,hc,oc
improper_coeff	14 aa    2.42590    2.42590    2.12830  107.66000  108.72800  108.72800  # c,hc,hc,oh
improper_coeff	15 aa   -1.31990   -1.31990    0.11840  112.67000  110.77000  110.77000  # c1,c,c,hc
improper_coeff	16 aa    0.00000    0.00000   -3.57440  112.67000  111.27000  111.27000  # c1,c,c,oc
improper_coeff	17 aa    0.16890    0.00000    0.00000  111.27000  110.77000  108.72800  # c1,c,oc,hc
improper_coeff	18 aa   -1.31990   -1.31990    0.11840  112.67000  110.77000  110.77000  # c3h,c,c,hc
improper_coeff	19 aa   -0.83300   -0.83300   -3.57440  112.67000  111.27000  111.27000  # c3h,c,c,o3e
improper_coeff	20 aa    0.16890    2.59260    3.91770  111.27000  110.77000  108.72800  # c3h,c,o3e,hc
improper_coeff	21 aa    0.00000    0.00000    0.00000  118.90000  117.94000  117.94000  # cp,cp,cp,hc
improper_coeff	22 aa    0.00000    0.00000    0.00000  118.90000  123.42000  123.42000  # cp,cp,cp,oc

# ------------------------------- OPT Section -------------------------------
minimize 1.0e-5 1.0e-7 100000 400000
PPPM initialization ...
  G vector (1/distance) = 0.11322774
  grid = 4 4 4
  stencil order = 5
  estimated absolute RMS force accuracy = 0.33520679
  estimated relative force accuracy = 0.0010094653
  3d grid and FFT values/proc = 294 4
Generated 36 of 36 mixed pair_coeff terms from sixthpower/sixthpower mixing rule
  PPPM/cg optimization cutoff: 1e-05
  Total charged atoms: 100.0%
  Min/max charged atoms/proc: 100.0% 100.0%
Step          Temp          E_pair         E_mol          TotEng         Press
0   611.25775      19.797713      8412.984       17542.998      1726.9189
Loop time of 1.29274 on 24 procs for 104 steps with 5001 atoms

Minimization stats:
  Stopping criterion = linesearch alpha is zero
  Energy initial, next-to-last, final =
  Force two-norm initial, final = 3566.9395 61.440834
  Force max component initial, final = 170.67875 3.1871846
  Final line search alpha, max atom move = 2.1124525e-12 6.7327761e-12
  Iterations, force evaluations = 104 335

# ------------------------------- Run Section -------------------------------
#

timestep 0.25
neighbor        2.0 bin
neigh_modify    delay 0 every 1 check yes

thermo_style custom step temp pe evdwl ecoul ebond eangle edihed eimp density vol
thermo 20000

variable        Rho equal density
variable        Temp equal temp
variable        Volume equal vol
fix             fDENS all ave/time 100 100 300000 v_Temp v_Rho v_Volume file temp_vs_density.txt

label           loop
variable        a loop 26
variable        b equal 600-20*($a-1)
variable        b equal 600-20*(1-1)
fix             fMOM all momentum 100 linear 1 1 1 angular
fix             fNPT all npt temp $b $b $(100.0*dt) iso 1 1 $(100.0*dt)
fix             fNPT all npt temp 600 $b $(100.0*dt) iso 1 1 $(100.0*dt)
fix             fNPT all npt temp 600 600 $(100.0*dt) iso 1 1 $(100.0*dt)
fix             fNPT all npt temp 600 600 25 iso 1 1 $(100.0*dt)
fix             fNPT all npt temp 600 600 25 iso 1 1 25
run             1200000
PPPM initialization ...
  G vector (1/distance) = 0.11322774
  grid = 4 4 4
  stencil order = 5
  estimated absolute RMS force accuracy = 0.33520679
  estimated relative force accuracy = 0.0010094653
  3d grid and FFT values/proc = 294 4
Generated 36 of 36 mixed pair_coeff terms from sixthpower/sixthpower mixing rule
Step          Temp          PotEng         E_vdwl         E_coul         E_bond        E_angle        E_dihed        E_impro        Density         Volume
104   611.25775     -299.89266     -926.30514      1787.8561      457.35964      1582.0739     -1690.2669      1.2524837      0.96026592     61589.935
Averages over the last 31 of 62 rows, steps 620000 to 1200104:
Temp PotEng E_vdwl E_coul E_bond E_angle E_dihed E_impro Density Volume
598.726 8413.01 -308.978 1793.04 3706.61 4708.57 -218.069 243.564 0.955124 61927.8
Loop time of 3552.05 on 24 procs for 1200000 steps with 5001 atoms

unfix           fNPT
unfix           fMOM
next            a
jump            SELF loop
variable        a loop 26
variable        b equal 600-20*($a-1)
variable        b equal 600-20*(2-1)
fix             fMOM all momentum 100 linear 1 1 1 angular
fix             fNPT all npt temp $b $b $(100.0*dt) iso 1 1 $(100.0*dt)
fix             fNPT all npt temp 580 $b $(100.0*dt) iso 1 1 $(100.0*dt)
fix             fNPT all npt temp 580 580 $(100.0*dt) iso 1 1 $(100.0*dt)
fix             fNPT all npt temp 580 580 25 iso 1 1 $(100.0*dt)
fix             fNPT all npt temp 580 580 25 iso 1 1 25
run             1200000
PPPM initialization ...
  G vector (1/distance) = 0.11274675
  grid = 4 4 4
  stencil order = 5
  estimated absolute RMS force accuracy = 0.33594077
  estimated relative force accuracy = 0.0010116756
  3d grid and FFT values/proc = 294 4
Generated 36 of 36 mixed pair_coeff terms from sixthpower/sixthpower mixing rule
Step          Temp          PotEng         E_vdwl         E_coul         E_bond        E_angle        E_dihed        E_impro        Density         Volume
1200104   596.89891      8224.309      -310.22745      1823.142       3638.6989      4619.876      -264.99861      223.89884      0.94373543     62668.745
Averages over the last 31 of 62 rows, steps 1820000 to 2400104:
Temp PotEng E_vdwl E_coul E_bond E_angle E_dihed E_impro Density Volume
580.801 8069.53 -388.713 1775.08 3589.79 4636.06 -276.975 239.819 0.970077 60972.6
Loop time of 3563.79 on 24 procs for 1200000 steps with 5001 atoms

unfix           fNPT
unfix           fMOM
next            a
jump            SELF loop
variable        a loop 26
variable        b equal 600-20*($a-1)
variable        b equal 600-20*(3-1)
fix             fMOM all momentum 100 linear 1 1 1 angular
fix             fNPT all npt temp $b $b $(100.0*dt) iso 1 1 $(100.0*dt)
fix             fNPT all npt temp 560 $b $(100.0*dt) iso 1 1 $(100.0*dt)
fix             fNPT all npt temp 560 560 $(100.0*dt) iso 1 1 $(100.0*dt)
fix             fNPT all npt temp 560 560 25 iso 1 1 $(100.0*dt)
fix             fNPT all npt temp 560 560 25 iso 1 1 25
run             1200000
PPPM initialization ...
  G vector (1/distance) = 0.11376846
  grid = 4 4 4
  stencil order = 5
  estimated absolute RMS force accuracy = 0.33435715
  estimated relative force accuracy = 0.0010069066
  3d grid and FFT values/proc = 294 4
Generated 36 of 36 mixed pair_coeff terms from sixthpower/sixthpower mixing rule
Step          Temp          PotEng         E_vdwl         E_coul         E_bond        E_angle        E_dihed        E_impro        Density         Volume
2400104   573.35518      8140.9168     -417.72602      1774.774       3571.6579      4746.3088     -255.41836      240.29281      0.97914796     60402.225
Averages over the last 31 of 62 rows, steps 3020000 to 3600104:
Temp PotEng E_vdwl E_coul E_bond E_angle E_dihed E_impro Density Volume
559.585 7726.63 -432.827 1781.19 3500.54 4517.33 -352.091 231.594 0.978344 60458
Loop time of 3569.88 on 24 procs for 1200000 steps with 5001 atoms

unfix           fNPT
unfix           fMOM
next            a
jump            SELF loop
variable        a loop 26
variable        b equal 600-20*($a-1)
variable        b equal 600-20*(4-1)
fix             fMOM all momentum 100 linear 1 1 1 angular
fix             fNPT all npt temp $b $b $(100.0*dt) iso 1 1 $(100.0*dt)
fix             fNPT all npt temp 540 $b $(100.0*dt) iso 1 1 $(100.0*dt)
fix             fNPT all npt temp 540 540 $(100.0*dt) iso 1 1 $(100.0*dt)
fix             fNPT all npt temp 540 540 25 iso 1 1 $(100.0*dt)
fix             fNPT all npt temp 540 540 25 iso 1 1 25
run             1200000
PPPM initialization ...
  G vector (1/distance) = 0.1135514
  grid = 4 4 4
  stencil order = 5
  estimated absolute RMS force accuracy = 0.33470132
  estimated relative force accuracy = 0.0010079431
  3d grid and FFT values/proc = 294 4
Generated 36 of 36 mixed pair_coeff terms from sixthpower/sixthpower mixing rule
Step          Temp          PotEng         E_vdwl         E_coul         E_bond        E_angle        E_dihed        E_impro        Density         Volume
3600104   562.78865      7648.1953     -369.67049      1775.0757      3418.1776      4487.1286     -366.78839      221.33552      0.97152988     60875.858
Averages over the last 31 of 62 rows, steps 4220000 to 4800104:
Temp PotEng E_vdwl E_coul E_bond E_angle E_dihed E_impro Density Volume
540.55 7352.82 -487.539 1772.52 3380.41 4383.22 -399.488 219.944 0.991336 59667.4
Loop time of 3576.45 on 24 procs for 1200000 steps with 5001 atoms

unfix           fNPT
unfix           fMOM
next            a
jump            SELF loop
variable        a loop 26
variable        b equal 600-20*($a-1)
variable        b equal 600-20*(5-1)
fix             fMOM all momentum 100 linear 1 1 1 angular
fix             fNPT all npt temp $b $b $(100.0*dt) iso 1 1 $(100.0*dt)
fix             fNPT all npt temp 520 $b $(100.0*dt) iso 1 1 $(100.0*dt)
fix             fNPT all npt temp 520 520 $(100.0*dt) iso 1 1 $(100.0*dt)
fix             fNPT all npt temp 520 520 25 iso 1 1 $(100.0*dt)
fix             fNPT all npt temp 520 520 25 iso 1 1 25
run             1200000
PPPM initialization ...
  G vector (1/distance) = 0.1140293
  grid = 4 4 4
  stencil order = 5
  estimated absolute RMS force accuracy = 0.33393808
  estimated relative force accuracy = 0.0010056446
  3d grid and FFT values/proc = 294 4
Generated 36 of 36 mixed pair_coeff terms from sixthpower/sixthpower mixing rule
Step          Temp          PotEng         E_vdwl         E_coul         E_bond        E_angle        E_dihed        E_impro        Density         Volume
4800104   529.25773      7340.6193     -493.9233       1762.2846      3390.7721      4373.3591     -380.97331      211.83414      0.98837137     59838.556
Averages over the last 31 of 62 rows, steps 5420000 to 6000104:
Temp PotEng E_vdwl E_coul E_bond E_angle E_dihed E_impro Density Volume
519.875 6977.7 -565.689 1767.4 3282.76 4259.53 -457.231 213.706 1.00558 58819.2
Loop time of 3613.57 on 24 procs for 1200000 steps with 5001 atoms

unfix           fNPT
unfix           fMOM
next            a
jump            SELF loop
variable        a loop 26
variable        b equal 600-20*($a-1)
variable        b equal 600-20*(6-1)
fix             fMOM all momentum 100 linear 1 1 1 angular
fix             fNPT all npt temp $b $b $(100.0*dt) iso 1 1 $(100.0*dt)
fix             fNPT all npt temp 500 $b $(100.0*dt) iso 1 1 $(100.0*dt)
fix             fNPT all npt temp 500 500 $(100.0*dt) iso 1 1 $(100.0*dt)
fix             fNPT all npt temp 500 500 25 iso 1 1 $(100.0*dt)
fix             fNPT all npt temp 500 500 25 iso 1 1 25
run             1200000
PPPM initialization ...
  G vector (1/distance) = 0.11482254
  grid = 4 4 4
  stencil order = 5
  estimated absolute RMS force accuracy = 0.33262735
  estimated relative force accuracy = 0.0010016974
  3d grid and FFT values/proc = 294 4
Generated 36 of 36 mixed pair_coeff terms from sixthpower/sixthpower mixing rule
Step          Temp          PotEng         E_vdwl         E_coul         E_bond        E_angle        E_dihed        E_impro        Density         Volume
6000104   522.56551      6908.0068     -588.81893      1793.0802      3215.6943      4289.2474     -476.86682      209.4509       1.016886       58160.616
Averages over the last 31 of 62 rows, steps 6620000 to 7200104:
Temp PotEng E_vdwl E_coul E_bond E_angle E_dihed E_impro Density Volume
500.157 6579.57 -626.017 1769.6 3151.99 4137.92 -526.937 206.419 1.01551 58243.5
Loop time of 3673.09 on 24 procs for 1200000 steps with 5001 atoms

unfix           fNPT
unfix           fMOM
next            a
jump            SELF loop
variable        a loop 26
variable        b equal 600-20*($a-1)
variable        b equal 600-20*(7-1)
fix             fMOM all momentum 100 linear 1 1 1 angular
fix             fNPT all npt temp $b $b $(100.0*dt) iso 1 1 $(100.0*dt)
fix             fNPT all npt temp 480 $b $(100.0*dt) iso 1 1 $(100.0*dt)
fix             fNPT all npt temp 480 480 $(100.0*dt) iso 1 1 $(100.0*dt)
fix             fNPT all npt temp 480 480 25 iso 1 1 $(100.0*dt)
fix             fNPT all npt temp 480 480 25 iso 1 1 25
run             1200000
PPPM initialization ...
  G vector (1/distance) = 0.11489176
  grid = 4 4 4
  stencil order = 5
  estimated absolute RMS force accuracy = 0.33251041
  estimated relative force accuracy = 0.0010013452
  3d grid and FFT values/proc = 294 4
Generated 36 of 36 mixed pair_coeff terms from sixthpower/sixthpower mixing rule
Step          Temp          PotEng         E_vdwl         E_coul         E_bond        E_angle        E_dihed        E_impro        Density         Volume
7200104   487.99227      6496.3899     -642.46994      1752.2986      3082.6746      4064.428      -432.44973      206.79124      1.0194077      58016.746
Averages over the last 31 of 62 rows, steps 7820000 to 8400104:
Temp PotEng E_vdwl E_coul E_bond E_angle E_dihed E_impro Density Volume
480.009 6217.31 -682.849 1759.67 3050.35 4026.32 -598.39 196.569 1.02567 57667.1
Loop time of 3641.31 on 24 procs for 1200000 steps with 5001 atoms

unfix           fNPT
unfix           fMOM
next            a
jump            SELF loop
variable        a loop 26
variable        b equal 600-20*($a-1)
variable        b equal 600-20*(8-1)
fix             fMOM all momentum 100 linear 1 1 1 angular
fix             fNPT all npt temp $b $b $(100.0*dt) iso 1 1 $(100.0*dt)
fix             fNPT all npt temp 460 $b $(100.0*dt) iso 1 1 $(100.0*dt)
fix             fNPT all npt temp 460 460 $(100.0*dt) iso 1 1 $(100.0*dt)
fix             fNPT all npt temp 460 460 25 iso 1 1 $(100.0*dt)
fix             fNPT all npt temp 460 460 25 iso 1 1 25
run             1200000
PPPM initialization ...
  G vector (1/distance) = 0.11484154
  grid = 4 4 4
  stencil order = 5
  estimated absolute RMS force accuracy = 0.33259529
  estimated relative force accuracy = 0.0010016008
  3d grid and FFT values/proc = 294 4
Generated 36 of 36 mixed pair_coeff terms from sixthpower/sixthpower mixing rule
Step          Temp          PotEng         E_vdwl         E_coul         E_bond        E_angle        E_dihed        E_impro        Density         Volume
8400104   477.25885      6322.1441     -673.43296      1770.6608      3109.7943      4119.6644     -669.93522      199.30751      1.0175776      58121.086
Averages over the last 31 of 62 rows, steps 9020000 to 9600104:
Temp PotEng E_vdwl E_coul E_bond E_angle E_dihed E_impro Density Volume
459.821 5860.24 -750.567 1743.1 2921.83 3928.52 -637.245 188.284 1.03959 56895
Loop time of 3661.95 on 24 procs for 1200000 steps with 5001 atoms

unfix           fNPT
unfix           fMOM
next            a
jump            SELF loop
variable        a loop 26
variable        b equal 600-20*($a-1)
variable        b equal 600-20*(9-1)
fix             fMOM all momentum 100 linear 1 1 1 angular
fix             fNPT all npt temp $b $b $(100.0*dt) iso 1 1 $(100.0*dt)
fix             fNPT all npt temp 440 $b $(100.0*dt) iso 1 1 $(100.0*dt)
fix             fNPT all npt temp 440 440 $(100.0*dt) iso 1 1 $(100.0*dt)
fix             fNPT all npt temp 440 440 25 iso 1 1 $(100.0*dt)
fix             fNPT all npt temp 440 440 25 iso 1 1 25
run             1200000
PPPM initialization ...
  G vector (1/distance) = 0.11561749
  grid = 4 4 4
  stencil order = 5
  estimated absolute RMS force accuracy = 0.33125978
  estimated relative force accuracy = 0.000997579
  3d grid and FFT values/proc = 294 4
Generated 36 of 36 mixed pair_coeff terms from sixthpower/sixthpower mixing rule
Step          Temp          PotEng         E_vdwl         E_coul         E_bond        E_angle        E_dihed        E_impro        Density         Volume
9600104   447.84141      5869.6783     -824.36216      1777.6217      2844.7718      4001.6662     -575.96549      190.37271      1.0461774      56532.205
Averages over the last 31 of 62 rows, steps 10220000 to 10800104:
Temp PotEng E_vdwl E_coul E_bond E_angle E_dihed E_impro Density Volume
441.285 5509.61 -823.061 1740.34 2828.9 3858.66 -729.628 178.421 1.05166 56240.7
Loop time of 3742.73 on 24 procs for 1200000 steps with 5001 atoms

unfix           fNPT
unfix           fMOM
next            a
jump            SELF loop
variable        a loop 26
variable        b equal 600-20*($a-1)
variable        b equal 600-20*(10-1)
fix             fMOM all momentum 100 linear 1 1 1 angular
fix             fNPT all npt temp $b $b $(100.0*dt) iso 1 1 $(100.0*dt)
fix             fNPT all npt temp 420 $b $(100.0*dt) iso 1 1 $(100.0*dt)
fix             fNPT all npt temp 420 420 $(100.0*dt) iso 1 1 $(100.0*dt)
fix             fNPT all npt temp 420 420 25 iso 1 1 $(100.0*dt)
fix             fNPT all npt temp 420 420 25 iso 1 1 25
run             1200000
PPPM initialization ...
  G vector (1/distance) = 0.11584748
  grid = 4 4 4
  stencil order = 5
  estimated absolute RMS force accuracy = 0.33085419
  estimated relative force accuracy = 0.00099635758
  3d grid and FFT values/proc = 294 4
Generated 36 of 36 mixed pair_coeff terms from sixthpower/sixthpower mixing rule
Step          Temp          PotEng         E_vdwl         E_coul         E_bond        E_angle        E_dihed        E_impro        Density         Volume
10800104   439.40685      5490.7192     -833.2583       1757.03        2843.7297      3810.0902     -718.54739      178.91017      1.0547877      56070.729
Averages over the last 31 of 62 rows, steps 11420000 to 12000104:
Temp PotEng E_vdwl E_coul E_bond E_angle E_dihed E_impro Density Volume
420.269 5125.08 -859.577 1747.49 2699.8 3695.09 -782.527 171.779 1.06225 55678.8
Loop time of 3770.58 on 24 procs for 1200000 steps with 5001 atoms

unfix           fNPT
unfix           fMOM
next            a
jump            SELF loop
variable        a loop 26
variable        b equal 600-20*($a-1)
variable        b equal 600-20*(11-1)
fix             fMOM all momentum 100 linear 1 1 1 angular
fix             fNPT all npt temp $b $b $(100.0*dt) iso 1 1 $(100.0*dt)
fix             fNPT all npt temp 400 $b $(100.0*dt) iso 1 1 $(100.0*dt)
fix             fNPT all npt temp 400 400 $(100.0*dt) iso 1 1 $(100.0*dt)
fix             fNPT all npt temp 400 400 25 iso 1 1 $(100.0*dt)
fix             fNPT all npt temp 400 400 25 iso 1 1 25
run             1200000
PPPM initialization ...
  G vector (1/distance) = 0.11579476
  grid = 4 4 4
  stencil order = 5
  estimated absolute RMS force accuracy = 0.33094755
  estimated relative force accuracy = 0.00099663871
  3d grid and FFT values/proc = 294 4
Generated 36 of 36 mixed pair_coeff terms from sixthpower/sixthpower mixing rule
Step          Temp          PotEng         E_vdwl         E_coul         E_bond        E_angle        E_dihed        E_impro        Density         Volume
12000104   418.30717      5206.7433     -852.75487      1754.3824      2644.7534      3738.4299     -703.73168      172.25393      1.0528087      56176.125
Averages over the last 31 of 62 rows, steps 12620000 to 13200104:
Temp PotEng E_vdwl E_coul E_bond E_angle E_dihed E_impro Density Volume
400.907 4740.65 -917.179 1733.54 2603.16 3580.62 -876.77 163.536 1.07112 55217.2
Loop time of 3737.6 on 24 procs for 1200000 steps with 5001 atoms

unfix           fNPT
unfix           fMOM
next            a
jump            SELF loop
variable        a loop 26
variable        b equal 600-20*($a-1)
variable        b equal 600-20*(12-1)
fix             fMOM all momentum 100 linear 1 1 1 angular
fix             fNPT all npt temp $b $b $(100.0*dt) iso 1 1 $(100.0*dt)
fix             fNPT all npt temp 380 $b $(100.0*dt) iso 1 1 $(100.0*dt)
fix             fNPT all npt temp 380 380 $(100.0*dt) iso 1 1 $(100.0*dt)
fix             fNPT all npt temp 380 380 25 iso 1 1 $(100.0*dt)
fix             fNPT all npt temp 380 380 25 iso 1 1 25
run             1200000
PPPM initialization ...
  G vector (1/distance) = 0.11633699
  grid = 4 4 4
  stencil order = 5
  estimated absolute RMS force accuracy = 0.32997627
  estimated relative force accuracy = 0.00099371375
  3d grid and FFT values/proc = 294 4
Generated 36 of 36 mixed pair_coeff terms from sixthpower/sixthpower mixing rule
Step          Temp          PotEng         E_vdwl         E_coul         E_bond        E_angle        E_dihed        E_impro        Density         Volume
13200104   397.98766      4698.7925     -901.19839      1740.8098      2475.3146      3647.4233     -869.97453      159.4927       1.0733203      55102.576
Averages over the last 31 of 62 rows, steps 13820000 to 14400104:
Temp PotEng E_vdwl E_coul E_bond E_angle E_dihed E_impro Density Volume
379.041 4406.71 -977.955 1742.3 2490.5 3464.68 -912.806 154.125 1.08328 54597.8
Loop time of 3834.43 on 24 procs for 1200000 steps with 5001 atoms

unfix           fNPT
unfix           fMOM
next            a
jump            SELF loop
variable        a loop 26
variable        b equal 600-20*($a-1)
variable        b equal 600-20*(13-1)
fix             fMOM all momentum 100 linear 1 1 1 angular
fix             fNPT all npt temp $b $b $(100.0*dt) iso 1 1 $(100.0*dt)
fix             fNPT all npt temp 360 $b $(100.0*dt) iso 1 1 $(100.0*dt)
fix             fNPT all npt temp 360 360 $(100.0*dt) iso 1 1 $(100.0*dt)
fix             fNPT all npt temp 360 360 25 iso 1 1 $(100.0*dt)
fix             fNPT all npt temp 360 360 25 iso 1 1 25
run             1200000
PPPM initialization ...
  G vector (1/distance) = 0.11658104
  grid = 4 4 4
  stencil order = 5
  estimated absolute RMS force accuracy = 0.32953119
  estimated relative force accuracy = 0.00099237339
  3d grid and FFT values/proc = 294 4
Generated 36 of 36 mixed pair_coeff terms from sixthpower/sixthpower mixing rule
Step          Temp          PotEng         E_vdwl         E_coul         E_bond        E_angle        E_dihed        E_impro        Density         Volume
14400104   380.23255      4236.1265     -915.09616      1729.5226      2462.7273      3332.3007     -969.23682      153.23612      1.0826657      54626.942
Averages over the last 31 of 62 rows, steps 15020000 to 15600104:
Temp PotEng E_vdwl E_coul E_bond E_angle E_dihed E_impro Density Volume
360.405 4033.78 -1034.83 1721.43 2376.1 3357.49 -973.678 144.698 1.09224 54150.2
Loop time of 3781 on 24 procs for 1200000 steps with 5001 atoms

unfix           fNPT
unfix           fMOM
next            a
jump            SELF loop
variable        a loop 26
variable        b equal 600-20*($a-1)
variable        b equal 600-20*(14-1)
fix             fMOM all momentum 100 linear 1 1 1 angular
fix             fNPT all npt temp $b $b $(100.0*dt) iso 1 1 $(100.0*dt)
fix             fNPT all npt temp 340 $b $(100.0*dt) iso 1 1 $(100.0*dt)
fix             fNPT all npt temp 340 340 $(100.0*dt) iso 1 1 $(100.0*dt)
fix             fNPT all npt temp 340 340 25 iso 1 1 $(100.0*dt)
fix             fNPT all npt temp 340 340 25 iso 1 1 25
run             1200000
PPPM initialization ...
  G vector (1/distance) = 0.11648259
  grid = 4 4 4
  stencil order = 5
  estimated absolute RMS force accuracy = 0.32971131
  estimated relative force accuracy = 0.00099291582
  3d grid and FFT values/proc = 294 4
Generated 36 of 36 mixed pair_coeff terms from sixthpower/sixthpower mixing rule
Step          Temp          PotEng         E_vdwl         E_coul         E_bond        E_angle        E_dihed        E_impro        Density         Volume
15600104   363.94026      4142.4986     -995.49871      1729.3027      2422.6864      3386.9035     -983.19582      138.1924       1.0788876      54818.239
Averages over the last 31 of 62 rows, steps 16220000 to 16800104:
Temp PotEng E_vdwl E_coul E_bond E_angle E_dihed E_impro Density Volume
341.054 3679.5 -1076.9 1726.85 2271.09 3244.91 -1067.77 137.451 1.10061 53737.5
Loop time of 3806.04 on 24 procs for 1200000 steps with 5001 atoms

unfix           fNPT
unfix           fMOM
next            a
jump            SELF loop
variable        a loop 26
variable        b equal 600-20*($a-1)
variable        b equal 600-20*(15-1)
fix             fMOM all momentum 100 linear 1 1 1 angular
fix             fNPT all npt temp $b $b $(100.0*dt) iso 1 1 $(100.0*dt)
fix             fNPT all npt temp 320 $b $(100.0*dt) iso 1 1 $(100.0*dt)
fix             fNPT all npt temp 320 320 $(100.0*dt) iso 1 1 $(100.0*dt)
fix             fNPT all npt temp 320 320 25 iso 1 1 $(100.0*dt)
fix             fNPT all npt temp 320 320 25 iso 1 1 25
run             1200000
PPPM initialization ...
  G vector (1/distance) = 0.1169628
  grid = 4 4 4
  stencil order = 5
  estimated absolute RMS force accuracy = 0.32882519
  estimated relative force accuracy = 0.00099024728
  3d grid and FFT values/proc = 294 4
Generated 36 of 36 mixed pair_coeff terms from sixthpower/sixthpower mixing rule
Step          Temp          PotEng         E_vdwl         E_coul         E_bond        E_angle        E_dihed        E_impro        Density         Volume
16800104   338.24126      3677.3205     -1083.124       1737.8933      2272.9158      3203.775      -1028.8585      136.92343      1.0974273      53892.149
Averages over the last 31 of 62 rows, steps 17420000 to 18000104:
Temp PotEng E_vdwl E_coul E_bond E_angle E_dihed E_impro Density Volume
319.83 3335.47 -1127.88 1727.6 2161.32 3124.94 -1117.86 130.192 1.10838 53360.7
Loop time of 3831.75 on 24 procs for 1200000 steps with 5001 atoms

unfix           fNPT
unfix           fMOM
next            a
jump            SELF loop
variable        a loop 26
variable        b equal 600-20*($a-1)
variable        b equal 600-20*(16-1)
fix             fMOM all momentum 100 linear 1 1 1 angular
fix             fNPT all npt temp $b $b $(100.0*dt) iso 1 1 $(100.0*dt)
fix             fNPT all npt temp 300 $b $(100.0*dt) iso 1 1 $(100.0*dt)
fix             fNPT all npt temp 300 300 $(100.0*dt) iso 1 1 $(100.0*dt)
fix             fNPT all npt temp 300 300 25 iso 1 1 $(100.0*dt)
fix             fNPT all npt temp 300 300 25 iso 1 1 25
run             1200000
PPPM initialization ...
  G vector (1/distance) = 0.11726741
  grid = 4 4 4
  stencil order = 5
  estimated absolute RMS force accuracy = 0.3282534
  estimated relative force accuracy = 0.00098852535
  3d grid and FFT values/proc = 294 4
Generated 36 of 36 mixed pair_coeff terms from sixthpower/sixthpower mixing rule
Step          Temp          PotEng         E_vdwl         E_coul         E_bond        E_angle        E_dihed        E_impro        Density         Volume
18000104   318.0305       3314.1678     -1116.3379      1741.0585      2170.9523      3084.9189     -1124.5796      125.22641      1.1093315      53313.835
Averages over the last 31 of 62 rows, steps 18620000 to 19200104:
Temp PotEng E_vdwl E_coul E_bond E_angle E_dihed E_impro Density Volume
300.441 3001.27 -1178.9 1722.18 2054.61 3045.44 -1196.27 121.166 1.11869 52868.9
Loop time of 3841.1 on 24 procs for 1200000 steps with 5001 atoms

unfix           fNPT
unfix           fMOM
next            a
jump            SELF loop
variable        a loop 26
variable        b equal 600-20*($a-1)
variable        b equal 600-20*(17-1)
fix             fMOM all momentum 100 linear 1 1 1 angular
fix             fNPT all npt temp $b $b $(100.0*dt) iso 1 1 $(100.0*dt)
fix             fNPT all npt temp 280 $b $(100.0*dt) iso 1 1 $(100.0*dt)
fix             fNPT all npt temp 280 280 $(100.0*dt) iso 1 1 $(100.0*dt)
fix             fNPT all npt temp 280 280 25 iso 1 1 $(100.0*dt)
fix             fNPT all npt temp 280 280 25 iso 1 1 25
run             1200000
PPPM initialization ...
  G vector (1/distance) = 0.11740343
  grid = 4 4 4
  stencil order = 5
  estimated absolute RMS force accuracy = 0.32799566
  estimated relative force accuracy = 0.00098774919
  3d grid and FFT values/proc = 294 4
Generated 36 of 36 mixed pair_coeff terms from sixthpower/sixthpower mixing rule
Step          Temp          PotEng         E_vdwl         E_coul         E_bond        E_angle        E_dihed        E_impro        Density         Volume
19200104   301.10162      3068.7702     -1179.1124      1721.1073      2059.8842      3065.7011     -1152.1764      122.369        1.1146835      53057.855
Averages over the last 31 of 62 rows, steps 19820000 to 20400104:
Temp PotEng E_vdwl E_coul E_bond E_angle E_dihed E_impro Density Volume
279.488 2668.21 -1217.77 1721.5 1931.41 2954.88 -1266.75 113.685 1.12402 52617.8
Loop time of 3857.03 on 24 procs for 1200000 steps with 5001 atoms

unfix           fNPT
unfix           fMOM
next            a
jump            SELF loop
variable        a loop 26
variable        b equal 600-20*($a-1)
variable        b equal 600-20*(18-1)
fix             fMOM all momentum 100 linear 1 1 1 angular
fix             fNPT all npt temp $b $b $(100.0*dt) iso 1 1 $(100.0*dt)
fix             fNPT all npt temp 260 $b $(100.0*dt) iso 1 1 $(100.0*dt)
fix             fNPT all npt temp 260 260 $(100.0*dt) iso 1 1 $(100.0*dt)
fix             fNPT all npt temp 260 260 25 iso 1 1 $(100.0*dt)
fix             fNPT all npt temp 260 260 25 iso 1 1 25
run             1200000
PPPM initialization ...
  G vector (1/distance) = 0.11751411
  grid = 4 4 4
  stencil order = 5
  estimated absolute RMS force accuracy = 0.32778483
  estimated relative force accuracy = 0.00098711428
  3d grid and FFT values/proc = 294 4
Generated 36 of 36 mixed pair_coeff terms from sixthpower/sixthpower mixing rule
Step          Temp          PotEng         E_vdwl         E_coul         E_bond        E_angle        E_dihed        E_impro        Density         Volume
20400104   283.3387       2662.5942     -1202.4279      1732.4075      1911.209       2936.1204     -1256.1492      111.5262       1.1190555      52850.565
Averages over the last 31 of 62 rows, steps 21020000 to 21600104:
Temp PotEng E_vdwl E_coul E_bond E_angle E_dihed E_impro Density Volume
260.462 2363.83 -1272.83 1710.75 1838.62 2847.08 -1295.15 105.468 1.13173 52259.3
Loop time of 3847.3 on 24 procs for 1200000 steps with 5001 atoms

unfix           fNPT
unfix           fMOM
next            a
jump            SELF loop
variable        a loop 26
variable        b equal 600-20*($a-1)
variable        b equal 600-20*(19-1)
fix             fMOM all momentum 100 linear 1 1 1 angular
fix             fNPT all npt temp $b $b $(100.0*dt) iso 1 1 $(100.0*dt)
fix             fNPT all npt temp 240 $b $(100.0*dt) iso 1 1 $(100.0*dt)
fix             fNPT all npt temp 240 240 $(100.0*dt) iso 1 1 $(100.0*dt)
fix             fNPT all npt temp 240 240 25 iso 1 1 $(100.0*dt)
fix             fNPT all npt temp 240 240 25 iso 1 1 25
run             1200000
PPPM initialization ...
  G vector (1/distance) = 0.11779762
  grid = 4 4 4
  stencil order = 5
  estimated absolute RMS force accuracy = 0.32724037
  estimated relative force accuracy = 0.00098547467
  3d grid and FFT values/proc = 294 4
Generated 36 of 36 mixed pair_coeff terms from sixthpower/sixthpower mixing rule
Step          Temp          PotEng         E_vdwl         E_coul         E_bond        E_angle        E_dihed        E_impro        Density         Volume
21600104   259.18928      2395.9204     -1280.9184      1734.6082      1857.5757      2896.7866     -1337.5468      99.102484      1.1303221      52323.77
Averages over the last 31 of 62 rows, steps 22220000 to 22800104:
Temp PotEng E_vdwl E_coul E_bond E_angle E_dihed E_impro Density Volume
240.62 2062.84 -1285.45 1720.44 1733.51 2740.77 -1370.16 97.4999 1.13494 52111.6
Loop time of 3906.96 on 24 procs for 1200000 steps with 5001 atoms

unfix           fNPT
unfix           fMOM
next            a
jump            SELF loop
variable        a loop 26
variable        b equal 600-20*($a-1)
variable        b equal 600-20*(20-1)
fix             fMOM all momentum 100 linear 1 1 1 angular
fix             fNPT all npt temp $b $b $(100.0*dt) iso 1 1 $(100.0*dt)
fix             fNPT all npt temp 220 $b $(100.0*dt) iso 1 1 $(100.0*dt)
fix             fNPT all npt temp 220 220 $(100.0*dt) iso 1 1 $(100.0*dt)
fix             fNPT all npt temp 220 220 25 iso 1 1 $(100.0*dt)
fix             fNPT all npt temp 220 220 25 iso 1 1 25
run             1200000
PPPM initialization ...
  G vector (1/distance) = 0.11795418
  grid = 4 4 4
  stencil order = 5
  estimated absolute RMS force accuracy = 0.32693698
  estimated relative force accuracy = 0.000984561
  3d grid and FFT values/proc = 294 4
Generated 36 of 36 mixed pair_coeff terms from sixthpower/sixthpower mixing rule
Step          Temp          PotEng         E_vdwl         E_coul         E_bond        E_angle        E_dihed        E_impro        Density         Volume
22800104   238.36965      2022.1978     -1281.1096      1718.7933      1706.9892      2696.6416     -1339.9228      96.508185      1.1365864      52035.387
Averages over the last 31 of 62 rows, steps 23420000 to 24000104:
Temp PotEng E_vdwl E_coul E_bond E_angle E_dihed E_impro Density Volume
220.031 1750.55 -1324.56 1717.06 1624.11 2632.44 -1411.56 89.1231 1.13991 51884
Loop time of 3864.85 on 24 procs for 1200000 steps with 5001 atoms

unfix           fNPT
unfix           fMOM
next            a
jump            SELF loop
variable        a loop 26
variable        b equal 600-20*($a-1)
variable        b equal 600-20*(21-1)
fix             fMOM all momentum 100 linear 1 1 1 angular
fix             fNPT all npt temp $b $b $(100.0*dt) iso 1 1 $(100.0*dt)
fix             fNPT all npt temp 200 $b $(100.0*dt) iso 1 1 $(100.0*dt)
fix             fNPT all npt temp 200 200 $(100.0*dt) iso 1 1 $(100.0*dt)
fix             fNPT all npt temp 200 200 25 iso 1 1 $(100.0*dt)
fix             fNPT all npt temp 200 200 25 iso 1 1 25
run             1200000
PPPM initialization ...
  G vector (1/distance) = 0.11808838
  grid = 4 4 4
  stencil order = 5
  estimated absolute RMS force accuracy = 0.32667536
  estimated relative force accuracy = 0.00098377316
  3d grid and FFT values/proc = 294 4
Generated 36 of 36 mixed pair_coeff terms from sixthpower/sixthpower mixing rule
Step          Temp          PotEng         E_vdwl         E_coul         E_bond        E_angle        E_dihed        E_impro        Density         Volume
24000104   222.65063      1753.8667     -1316.7647      1717.3878      1631.4925      2630.5158     -1420.692       89.559627      1.1419805      51789.6
Averages over the last 31 of 62 rows, steps 24620000 to 25200104:
Temp PotEng E_vdwl E_coul E_bond E_angle E_dihed E_impro Density Volume
200.059 1430.4 -1364.3 1717.25 1514.63 2534.18 -1474.2 80.455 1.14416 51691.6
Loop time of 3882.82 on 24 procs for 1200000 steps with 5001 atoms

unfix           fNPT
unfix           fMOM
next            a
jump            SELF loop
variable        a loop 26
variable        b equal 600-20*($a-1)
variable        b equal 600-20*(22-1)
fix             fMOM all momentum 100 linear 1 1 1 angular
fix             fNPT all npt temp $b $b $(100.0*dt) iso 1 1 $(100.0*dt)
fix             fNPT all npt temp 180 $b $(100.0*dt) iso 1 1 $(100.0*dt)
fix             fNPT all npt temp 180 180 $(100.0*dt) iso 1 1 $(100.0*dt)
fix             fNPT all npt temp 180 180 25 iso 1 1 $(100.0*dt)
fix             fNPT all npt temp 180 180 25 iso 1 1 25
run             1200000
PPPM initialization ...
  G vector (1/distance) = 0.11812186
  grid = 4 4 4
  stencil order = 5
  estimated absolute RMS force accuracy = 0.32660988
  estimated relative force accuracy = 0.00098357597
  3d grid and FFT values/proc = 294 4
Generated 36 of 36 mixed pair_coeff terms from sixthpower/sixthpower mixing rule
Step          Temp          PotEng         E_vdwl         E_coul         E_bond        E_angle        E_dihed        E_impro        Density         Volume
25200104   200.61187      1445.053      -1377.3443      1706.9014      1526.1306      2548.636      -1460.6294      79.573697      1.1433296      51728.493
Averages over the last 31 of 62 rows, steps 25820000 to 26400104:
Temp PotEng E_vdwl E_coul E_bond E_angle E_dihed E_impro Density Volume
179.976 1123.72 -1396.91 1715.38 1411.26 2441.31 -1541.82 72.6916 1.14883 51481.2
Loop time of 3863.72 on 24 procs for 1200000 steps with 5001 atoms
