LAMMPS (22 Dec 2022)
# PREREQUISITES:
#
#     You must use moltemplate.sh to create 3 files:
#        system.data  system.in.init  system.in.settings
#     (Follow the instructions in README_setup.sh,
#      or run the file as a script using ./README_setup.sh)

# ------------------------------- Initialization Section --------------------

units real
atom_style full
boundary p p p

pair_style lj/class2/coul/cut 10.0
bond_style class2
angle_style class2
dihedral_style class2
improper_style class2

# ------------------------------- Atom Definition Section -------------------

read_data       "pack_mol.data" extra/bond/per/atom 1 extra/angle/per/atom 12 extra/dihedral/per/atom 12 extra/improper/per/atom 12 extra/special/per/atom 12
Reading data file ...
  orthogonal box = (0 0 0) to (42.862121 42.862121 42.862121)
  reading atoms ...
  2996 atoms
  scanning bonds ...
  scanning angles ...
  scanning dihedrals ...
  scanning impropers ...
  reading bonds ...
  3131 bonds
  reading angles ...
  5396 angles
  reading dihedrals ...
  7121 dihedrals
  reading impropers ...
  2556 impropers
Finding 1-2 1-3 1-4 neighbors ...
     4 = max # of 1-2 neighbors
     7 = max # of 1-3 neighbors
    15 = max # of 1-4 neighbors
    29 = max # of special neighbors

include calc.pram

# Masses

mass		1    12.01115  # c
mass		2    12.01115  # c1
mass		3    12.01115  # c3h
mass		4    12.01115  # cp
mass		5     1.00797  # h
mass		6     1.00797  # hc
mass		7    15.99940  # o3e
mass		8    15.99940  # oc
mass		9    15.99940  # oh

# Potentials

pair_coeff	 1  1    0.05400    4.01000  # c,c
pair_coeff	 2  2    0.05400    4.01000  # c1,c1
pair_coeff	 3  3    0.05400    4.01000  # c3h,c3h
pair_coeff	 4  4    0.06400    4.01000  # cp,cp
pair_coeff	 5  5    0.02000    2.99500  # h,h
pair_coeff	 6  6    0.02000    2.99500  # hc,hc
pair_coeff	 7  7    0.24000    3.53500  # o3e,o3e
pair_coeff	 8  8    0.24000    3.53500  # oc,oc
pair_coeff	 9  9    0.24000    3.53500  # oh,oh

# Bond Coeffs

bond_coeff	 1    1.53000  299.67000 -501.77000  679.81000  # c,c
bond_coeff	 2    1.53000  299.67000 -501.77000  679.81000  # c,c1
bond_coeff	 3    1.53000  299.67000 -501.77000  679.81000  # c,c3h
bond_coeff	 4    1.10100  345.00000 -691.89000  844.60000  # c,hc
bond_coeff	 5    1.42000  400.39540 -835.19510 1313.01420  # c,o3e
bond_coeff	 6    1.42000  400.39540 -835.19510 1313.01420  # c,oc
bond_coeff	 7    1.42000  400.39540 -835.19510 1313.01420  # c,oh
bond_coeff	 8    1.10100  345.00000 -691.89000  844.60000  # c1,hc
bond_coeff	 9    1.42000  400.39540 -835.19510 1313.01420  # c1,oc
bond_coeff	10    1.10100  345.00000 -691.89000  844.60000  # c3h,hc
bond_coeff	11    1.42000  400.39540 -835.19510 1313.01420  # c3h,o3e
bond_coeff	12    1.41700  470.83610 -627.61790 1327.63450  # cp,cp
bond_coeff	13    1.09820  372.82510 -803.45260  894.31730  # cp,hc
bond_coeff	14    1.37680  428.87980 -738.23510 1114.96550  # cp,oc
bond_coeff	15    0.96000  493.84800    0.00000    0.00000  # h,oh

# Angle Coeffs

angle_coeff	 1  112.67000   39.51600   -7.44300   -9.55830  # c,c,c
angle_coeff	 2  110.77000   41.45300  -10.60400    5.12900  # c,c,hc
angle_coeff	 3  111.27000   54.53810   -8.36420  -13.08380  # c,c,oc
angle_coeff	 4  112.67000   39.51600   -7.44300   -9.55830  # c,c1,c
angle_coeff	 5  110.77000   41.45300  -10.60400    5.12900  # c,c1,hc
angle_coeff	 6  111.27000   54.53810   -8.36420  -13.08380  # c,c1,oc
angle_coeff	 7  112.67000   39.51600   -7.44300   -9.55830  # c,c3h,c
angle_coeff	 8  110.77000   41.45300  -10.60400    5.12900  # c,c3h,hc
angle_coeff	 9  111.27000   54.53810   -8.36420  -13.08380  # c,c3h,o3e
angle_coeff	10  104.50000   35.74540  -10.00670   -6.27290  # c,o3e,c3h
angle_coeff	11  104.50000   35.74540  -10.00670   -6.27290  # c,oc,c1
angle_coeff	12  102.96950   38.97390   -6.25950   -8.17100  # c,oc,cp
angle_coeff	13  109.00000   58.50000    0.00000    0.00000  # c,oh,h
angle_coeff	14  110.77000   41.45300  -10.60400    5.12900  # c1,c,hc
angle_coeff	15  111.27000   54.53810   -8.36420  -13.08380  # c1,c,oc
angle_coeff	16  111.27000   54.53810   -8.36420  -13.08380  # c1,c,oh
angle_coeff	17  110.77000   41.45300  -10.60400    5.12900  # c3h,c,hc
angle_coeff	18  111.27000   54.53810   -8.36420  -13.08380  # c3h,c,o3e
angle_coeff	19  111.27000   54.53810   -8.36420  -13.08380  # c3h,c,oc
angle_coeff	20  118.90000   61.02260  -34.99310    0.00000  # cp,cp,cp
angle_coeff	21  117.94000   35.15580  -12.46820    0.00000  # cp,cp,hc
angle_coeff	22  123.42000   73.67810  -21.67870    0.00000  # cp,cp,oc
angle_coeff	23  107.66000   39.64100  -12.92100   -2.43180  # hc,c,hc
angle_coeff	24  108.72800   58.54460  -10.80880  -12.40060  # hc,c,o3e
angle_coeff	25  108.72800   58.54460  -10.80880  -12.40060  # hc,c,oc
angle_coeff	26  108.72800   58.54460  -10.80880  -12.40060  # hc,c,oh
angle_coeff	27  108.72800   58.54460  -10.80880  -12.40060  # hc,c1,oc
angle_coeff	28  108.72800   58.54460  -10.80880  -12.40060  # hc,c3h,o3e

# BondBond Coeffs

angle_coeff	 1 bb    0.00000    1.53000    1.53000  # c,c,c
angle_coeff	 2 bb    3.38720    1.53000    1.10100  # c,c,hc
angle_coeff	 3 bb   11.43180    1.53000    1.42000  # c,c,oc
angle_coeff	 4 bb    0.00000    1.53000    1.53000  # c,c1,c
angle_coeff	 5 bb    3.38720    1.53000    1.10100  # c,c1,hc
angle_coeff	 6 bb   11.43180    1.53000    1.42000  # c,c1,oc
angle_coeff	 7 bb    0.00000    1.53000    1.53000  # c,c3h,c
angle_coeff	 8 bb    3.38720    1.53000    1.10100  # c,c3h,hc
angle_coeff	 9 bb   11.43180    1.53000    1.42000  # c,c3h,o3e
angle_coeff	10 bb   -7.11310    1.42000    1.42000  # c,o3e,c3h
angle_coeff	11 bb   -7.11310    1.42000    1.42000  # c,oc,c1
angle_coeff	12 bb    0.00000    1.42000    1.37680  # c,oc,cp
angle_coeff	13 bb    0.00000    1.42000    0.96000  # c,oh,h
angle_coeff	14 bb    3.38720    1.53000    1.10100  # c1,c,hc
angle_coeff	15 bb   11.43180    1.53000    1.42000  # c1,c,oc
angle_coeff	16 bb   11.43180    1.53000    1.42000  # c1,c,oh
angle_coeff	17 bb    3.38720    1.53000    1.10100  # c3h,c,hc
angle_coeff	18 bb   11.43180    1.53000    1.42000  # c3h,c,o3e
angle_coeff	19 bb   11.43180    1.53000    1.42000  # c3h,c,oc
angle_coeff	20 bb   68.28560    1.41700    1.41700  # cp,cp,cp
angle_coeff	21 bb    1.07950    1.41700    1.09820  # cp,cp,hc
angle_coeff	22 bb   48.47540    1.41700    1.37680  # cp,cp,oc
angle_coeff	23 bb    5.33160    1.10100    1.10100  # hc,c,hc
angle_coeff	24 bb   23.19790    1.10100    1.42000  # hc,c,o3e
angle_coeff	25 bb   23.19790    1.10100    1.42000  # hc,c,oc
angle_coeff	26 bb   23.19790    1.10100    1.42000  # hc,c,oh
angle_coeff	27 bb   23.19790    1.10100    1.42000  # hc,c1,oc
angle_coeff	28 bb   23.19790    1.10100    1.42000  # hc,c3h,o3e

# BondAngle Coeffs

angle_coeff	 1 ba    8.01600    8.01600    1.53000    1.53000  # c,c,c
angle_coeff	 2 ba   20.75400   11.42100    1.53000    1.10100  # c,c,hc
angle_coeff	 3 ba   20.40330    2.68680    1.53000    1.42000  # c,c,oc
angle_coeff	 4 ba    8.01600    8.01600    1.53000    1.53000  # c,c1,c
angle_coeff	 5 ba   20.75400   11.42100    1.53000    1.10100  # c,c1,hc
angle_coeff	 6 ba   20.40330    2.68680    1.53000    1.42000  # c,c1,oc
angle_coeff	 7 ba    8.01600    8.01600    1.53000    1.53000  # c,c3h,c
angle_coeff	 8 ba   20.75400   11.42100    1.53000    1.10100  # c,c3h,hc
angle_coeff	 9 ba    2.68680   20.40330    1.53000    1.42000  # c,c3h,o3e
angle_coeff	10 ba   -2.81120   -2.81120    1.42000    1.42000  # c,o3e,c3h
angle_coeff	11 ba   -2.81120   -2.81120    1.42000    1.42000  # c,oc,c1
angle_coeff	12 ba    0.00000    0.00000    1.42000    1.37680  # c,oc,cp
angle_coeff	13 ba    0.00000    0.00000    1.42000    0.96000  # c,oh,h
angle_coeff	14 ba   11.42100   20.75400    1.53000    1.10100  # c1,c,hc
angle_coeff	15 ba   20.40330    2.68680    1.53000    1.42000  # c1,c,oc
angle_coeff	16 ba   20.40330    2.68680    1.53000    1.42000  # c1,c,oh
angle_coeff	17 ba   11.42100   20.75400    1.53000    1.10100  # c3h,c,hc
angle_coeff	18 ba    2.68680   20.40330    1.53000    1.42000  # c3h,c,o3e
angle_coeff	19 ba   20.40330    2.68680    1.53000    1.42000  # c3h,c,oc
angle_coeff	20 ba   28.87080   28.87080    1.41700    1.41700  # cp,cp,cp
angle_coeff	21 ba   20.00330   24.21830    1.41700    1.09820  # cp,cp,hc
angle_coeff	22 ba   58.47900  107.68060    1.41700    1.37680  # cp,cp,oc
angle_coeff	23 ba   18.10300   18.10300    1.10100    1.10100  # hc,c,hc
angle_coeff	24 ba    4.61890   55.32700    1.10100    1.42000  # hc,c,o3e
angle_coeff	25 ba   55.32700    4.61890    1.10100    1.42000  # hc,c,oc
angle_coeff	26 ba    4.61890   55.32700    1.10100    1.42000  # hc,c,oh
angle_coeff	27 ba   55.32700    4.61890    1.10100    1.42000  # hc,c1,oc
angle_coeff	28 ba    4.61890   55.32700    1.10100    1.42000  # hc,c3h,o3e

# Dihedral Coeffs

dihedral_coeff	 1    0.00000    0.00000    0.03160    0.00000   -0.16810    0.00000  # c,c,c,hc
dihedral_coeff	 2    0.71370    0.00000    0.26600    0.00000   -0.25450    0.00000  # c,c,c,oc
dihedral_coeff	 3   -0.52030    0.00000   -0.30280    0.00000   -0.34500    0.00000  # c,c,oc,c1
dihedral_coeff	 4    0.00000    0.00000    0.00000    0.00000    0.13000  180.00000  # c,c,oc,cp
dihedral_coeff	 5    0.00000    0.00000    0.03160    0.00000   -0.16810    0.00000  # c,c1,c,hc
dihedral_coeff	 6    0.71370    0.00000    0.26600    0.00000   -0.25450    0.00000  # c,c1,c,oc
dihedral_coeff	 7    0.71370    0.00000    0.26600    0.00000   -0.25450    0.00000  # c,c1,c,oh
dihedral_coeff	 8   -0.52030    0.00000   -0.30280    0.00000   -0.34500    0.00000  # c,c1,oc,c
dihedral_coeff	 9    0.00000    0.00000    0.03160    0.00000   -0.16810    0.00000  # c,c3h,c,hc
dihedral_coeff	10    0.71370    0.00000    0.26600    0.00000   -0.25450    0.00000  # c,c3h,c,o3e
dihedral_coeff	11    0.71370    0.00000    0.26600    0.00000   -0.25450    0.00000  # c,c3h,c,oc
dihedral_coeff	12   -0.52030    0.00000   -0.30280    0.00000   -0.34500    0.00000  # c,c3h,o3e,c
dihedral_coeff	13    0.53020    0.00000    0.00000    0.00000   -0.39660    0.00000  # c,o3e,c3h,hc
dihedral_coeff	14    0.53020    0.00000    0.00000    0.00000   -0.39660    0.00000  # c,oc,c1,hc
dihedral_coeff	15    0.00000    0.00000    1.50000    0.00000    0.00000    0.00000  # c,oc,cp,cp
dihedral_coeff	16   -0.52030    0.00000   -0.30280    0.00000   -0.34500    0.00000  # c1,c,oc,c1
dihedral_coeff	17    0.00000    0.00000    0.00000    0.00000    0.13000  180.00000  # c1,c,oc,cp
dihedral_coeff	18    0.00000    0.00000    0.00000    0.00000    0.13000  180.00000  # c1,c,oh,h
dihedral_coeff	19    0.53020    0.00000    0.00000    0.00000   -0.39660    0.00000  # c1,oc,c,hc
dihedral_coeff	20    0.00000    0.00000    0.00000    0.00000    0.13000  180.00000  # c3h,c,oc,cp
dihedral_coeff	21    0.53020    0.00000    0.00000    0.00000   -0.39660    0.00000  # c3h,o3e,c,hc
dihedral_coeff	22    8.36670    0.00000    1.19320    0.00000    0.00000    0.00000  # cp,cp,cp,cp
dihedral_coeff	23    0.00000    0.00000    3.96610    0.00000    0.00000    0.00000  # cp,cp,cp,hc
dihedral_coeff	24    0.00000    0.00000    4.84980    0.00000    0.00000    0.00000  # cp,cp,cp,oc
dihedral_coeff	25    0.95130    0.00000    0.11550    0.00000    0.07200    0.00000  # cp,oc,c,hc
dihedral_coeff	26    0.00000    0.00000    0.00000    0.00000    0.13000  180.00000  # h,oh,c,hc
dihedral_coeff	27   -0.14320    0.00000    0.06170    0.00000   -0.10830    0.00000  # hc,c,c,hc
dihedral_coeff	28   -0.14350    0.00000    0.25300    0.00000   -0.09050    0.00000  # hc,c,c,oc
dihedral_coeff	29   -0.14320    0.00000    0.06170    0.00000   -0.10830    0.00000  # hc,c,c1,hc
dihedral_coeff	30   -0.14350    0.00000    0.25300    0.00000   -0.09050    0.00000  # hc,c,c1,oc
dihedral_coeff	31   -0.14320    0.00000    0.06170    0.00000   -0.10830    0.00000  # hc,c,c3h,hc
dihedral_coeff	32   -0.14350    0.00000    0.25300    0.00000   -0.09050    0.00000  # hc,c,c3h,o3e
dihedral_coeff	33   -0.14350    0.00000    0.25300    0.00000   -0.09050    0.00000  # hc,c1,c,oc
dihedral_coeff	34   -0.14350    0.00000    0.25300    0.00000   -0.09050    0.00000  # hc,c1,c,oh
dihedral_coeff	35   -0.14350    0.00000    0.25300    0.00000   -0.09050    0.00000  # hc,c3h,c,o3e
dihedral_coeff	36   -0.14350    0.00000    0.25300    0.00000   -0.09050    0.00000  # hc,c3h,c,oc
dihedral_coeff	37    0.00000    0.00000    1.87690    0.00000    0.00000    0.00000  # hc,cp,cp,hc
dihedral_coeff	38    0.00000    0.00000    1.72340    0.00000    0.00000    0.00000  # hc,cp,cp,oc
dihedral_coeff	39   -0.18200    0.00000   -0.10840    0.00000   -0.70470    0.00000  # o3e,c3h,c,oc
dihedral_coeff	40   -0.18200    0.00000   -0.10840    0.00000   -0.70470    0.00000  # oc,c,c1,oc
dihedral_coeff	41   -0.18200    0.00000   -0.10840    0.00000   -0.70470    0.00000  # oc,c1,c,oh

# MiddleBondTorsion Coeffs

dihedral_coeff	 1 mbt  -14.87900   -3.65810   -0.31380    1.53000  # c,c,c,hc
dihedral_coeff	 2 mbt  -21.88420   -7.67640   -0.68680    1.53000  # c,c,c,oc
dihedral_coeff	 3 mbt   -5.92880   -2.70070   -0.31750    1.42000  # c,c,oc,c1
dihedral_coeff	 4 mbt    0.00000    0.00000    0.00000    1.42000  # c,c,oc,cp
dihedral_coeff	 5 mbt  -14.87900   -3.65810   -0.31380    1.53000  # c,c1,c,hc
dihedral_coeff	 6 mbt  -21.88420   -7.67640   -0.68680    1.53000  # c,c1,c,oc
dihedral_coeff	 7 mbt  -21.88420   -7.67640   -0.68680    1.53000  # c,c1,c,oh
dihedral_coeff	 8 mbt   -5.92880   -2.70070   -0.31750    1.42000  # c,c1,oc,c
dihedral_coeff	 9 mbt  -14.87900   -3.65810   -0.31380    1.53000  # c,c3h,c,hc
dihedral_coeff	10 mbt  -21.88420   -7.67640   -0.68680    1.53000  # c,c3h,c,o3e
dihedral_coeff	11 mbt  -21.88420   -7.67640   -0.68680    1.53000  # c,c3h,c,oc
dihedral_coeff	12 mbt   -5.92880   -2.70070   -0.31750    1.42000  # c,c3h,o3e,c
dihedral_coeff	13 mbt   -6.80070   -4.65460   -1.41010    1.42000  # c,o3e,c3h,hc
dihedral_coeff	14 mbt   -6.80070   -4.65460   -1.41010    1.42000  # c,oc,c1,hc
dihedral_coeff	15 mbt    0.00000    0.00000    0.00000    1.37680  # c,oc,cp,cp
dihedral_coeff	16 mbt   -5.92880   -2.70070   -0.31750    1.42000  # c1,c,oc,c1
dihedral_coeff	17 mbt    0.00000    0.00000    0.00000    1.42000  # c1,c,oc,cp
dihedral_coeff	18 mbt    0.00000    0.00000    0.00000    1.42000  # c1,c,oh,h
dihedral_coeff	19 mbt   -6.80070   -4.65460   -1.41010    1.42000  # c1,oc,c,hc
dihedral_coeff	20 mbt    0.00000    0.00000    0.00000    1.42000  # c3h,c,oc,cp
dihedral_coeff	21 mbt   -6.80070   -4.65460   -1.41010    1.42000  # c3h,o3e,c,hc
dihedral_coeff	22 mbt   27.59890   -2.31200    0.00000    1.41700  # cp,cp,cp,cp
dihedral_coeff	23 mbt    0.00000   -1.15210    0.00000    1.41700  # cp,cp,cp,hc
dihedral_coeff	24 mbt    0.00000    4.82550    0.00000    1.41700  # cp,cp,cp,oc
dihedral_coeff	25 mbt    0.00000    0.00000    0.00000    1.42000  # cp,oc,c,hc
dihedral_coeff	26 mbt    0.00000    0.00000    0.00000    1.42000  # h,oh,c,hc
dihedral_coeff	27 mbt  -14.26100   -0.53220   -0.48640    1.53000  # hc,c,c,hc
dihedral_coeff	28 mbt  -16.79750   -1.22960   -0.27500    1.53000  # hc,c,c,oc
dihedral_coeff	29 mbt  -14.26100   -0.53220   -0.48640    1.53000  # hc,c,c1,hc
dihedral_coeff	30 mbt  -16.79750   -1.22960   -0.27500    1.53000  # hc,c,c1,oc
dihedral_coeff	31 mbt  -14.26100   -0.53220   -0.48640    1.53000  # hc,c,c3h,hc
dihedral_coeff	32 mbt  -16.79750   -1.22960   -0.27500    1.53000  # hc,c,c3h,o3e
dihedral_coeff	33 mbt  -16.79750   -1.22960   -0.27500    1.53000  # hc,c1,c,oc
dihedral_coeff	34 mbt  -16.79750   -1.22960   -0.27500    1.53000  # hc,c1,c,oh
dihedral_coeff	35 mbt  -16.79750   -1.22960   -0.27500    1.53000  # hc,c3h,c,o3e
dihedral_coeff	36 mbt  -16.79750   -1.22960   -0.27500    1.53000  # hc,c3h,c,oc
dihedral_coeff	37 mbt    0.00000    4.82280    0.00000    1.41700  # hc,cp,cp,hc
dihedral_coeff	38 mbt    0.00000    5.54320    0.00000    1.41700  # hc,cp,cp,oc
dihedral_coeff	39 mbt  -17.25850   -3.61570   -0.83640    1.53000  # o3e,c3h,c,oc
dihedral_coeff	40 mbt  -17.25850   -3.61570   -0.83640    1.53000  # oc,c,c1,oc
dihedral_coeff	41 mbt  -17.25850   -3.61570   -0.83640    1.53000  # oc,c1,c,oh

# EndBondTorsion Coeffs

dihedral_coeff	 1 ebt    0.24860    0.24220   -0.09250    0.08140    0.05910    0.22190    1.53000    1.10100  # c,c,c,hc
dihedral_coeff	 2 ebt    1.15380    0.84090   -0.91380   -0.31900    0.44110   -0.71740    1.53000    1.42000  # c,c,c,oc
dihedral_coeff	 3 ebt   -0.24560    1.05170   -0.77950    0.47410    1.26350    0.55760    1.53000    1.42000  # c,c,oc,c1
dihedral_coeff	 4 ebt    0.00000    0.00000    0.00000    0.00000    0.00000    0.00000    1.53000    1.37680  # c,c,oc,cp
dihedral_coeff	 5 ebt    0.24860    0.24220   -0.09250    0.08140    0.05910    0.22190    1.53000    1.10100  # c,c1,c,hc
dihedral_coeff	 6 ebt    1.15380    0.84090   -0.91380   -0.31900    0.44110   -0.71740    1.53000    1.42000  # c,c1,c,oc
dihedral_coeff	 7 ebt   -0.31900    0.44110   -0.71740    1.15380    0.84090   -0.91380    1.53000    1.42000  # c,c1,c,oh
dihedral_coeff	 8 ebt    0.47410    1.26350    0.55760   -0.24560    1.05170   -0.77950    1.53000    1.42000  # c,c1,oc,c
dihedral_coeff	 9 ebt    0.24860    0.24220   -0.09250    0.08140    0.05910    0.22190    1.53000    1.10100  # c,c3h,c,hc
dihedral_coeff	10 ebt   -0.31900    0.44110   -0.71740    1.15380    0.84090   -0.91380    1.53000    1.42000  # c,c3h,c,o3e
dihedral_coeff	11 ebt    1.15380    0.84090   -0.91380   -0.31900    0.44110   -0.71740    1.53000    1.42000  # c,c3h,c,oc
dihedral_coeff	12 ebt   -0.24560    1.05170   -0.77950    0.47410    1.26350    0.55760    1.53000    1.42000  # c,c3h,o3e,c
dihedral_coeff	13 ebt   -0.16200    0.15640   -1.14080   -0.60540    1.33390    0.96480    1.42000    1.10100  # c,o3e,c3h,hc
dihedral_coeff	14 ebt   -0.16200    0.15640   -1.14080   -0.60540    1.33390    0.96480    1.42000    1.10100  # c,oc,c1,hc
dihedral_coeff	15 ebt    0.00000    0.00000    0.00000    0.00000    0.00000    0.00000    1.42000    1.41700  # c,oc,cp,cp
dihedral_coeff	16 ebt    0.47410    1.26350    0.55760   -0.24560    1.05170   -0.77950    1.53000    1.42000  # c1,c,oc,c1
dihedral_coeff	17 ebt    0.00000    0.00000    0.00000    0.00000    0.00000    0.00000    1.53000    1.37680  # c1,c,oc,cp
dihedral_coeff	18 ebt    0.00000    0.00000    0.00000    0.00000    0.00000    0.00000    1.53000    0.96000  # c1,c,oh,h
dihedral_coeff	19 ebt   -0.60540    1.33390    0.96480   -0.16200    0.15640   -1.14080    1.42000    1.10100  # c1,oc,c,hc
dihedral_coeff	20 ebt    0.00000    0.00000    0.00000    0.00000    0.00000    0.00000    1.53000    1.37680  # c3h,c,oc,cp
dihedral_coeff	21 ebt   -0.60540    1.33390    0.96480   -0.16200    0.15640   -1.14080    1.42000    1.10100  # c3h,o3e,c,hc
dihedral_coeff	22 ebt   -0.11850    6.32040    0.00000   -0.11850    6.32040    0.00000    1.41700    1.41700  # cp,cp,cp,cp
dihedral_coeff	23 ebt    0.00000   -6.89580    0.00000    0.00000   -0.46690    0.00000    1.41700    1.09820  # cp,cp,cp,hc
dihedral_coeff	24 ebt    0.00000    0.26550    0.00000    0.00000    4.89050    0.00000    1.41700    1.37680  # cp,cp,cp,oc
dihedral_coeff	25 ebt    0.00000    0.00000    0.00000    0.00000    0.00000    0.00000    1.37680    1.10100  # cp,oc,c,hc
dihedral_coeff	26 ebt    0.00000    0.00000    0.00000    0.00000    0.00000    0.00000    0.96000    1.10100  # h,oh,c,hc
dihedral_coeff	27 ebt    0.21300    0.31200    0.07770    0.21300    0.31200    0.07770    1.10100    1.10100  # hc,c,c,hc
dihedral_coeff	28 ebt    0.59030    0.66690    0.85840    0.96810    0.95510    0.04360    1.10100    1.42000  # hc,c,c,oc
dihedral_coeff	29 ebt    0.21300    0.31200    0.07770    0.21300    0.31200    0.07770    1.10100    1.10100  # hc,c,c1,hc
dihedral_coeff	30 ebt    0.59030    0.66690    0.85840    0.96810    0.95510    0.04360    1.10100    1.42000  # hc,c,c1,oc
dihedral_coeff	31 ebt    0.21300    0.31200    0.07770    0.21300    0.31200    0.07770    1.10100    1.10100  # hc,c,c3h,hc
dihedral_coeff	32 ebt    0.96810    0.95510    0.04360    0.59030    0.66690    0.85840    1.10100    1.42000  # hc,c,c3h,o3e
dihedral_coeff	33 ebt    0.59030    0.66690    0.85840    0.96810    0.95510    0.04360    1.10100    1.42000  # hc,c1,c,oc
dihedral_coeff	34 ebt    0.96810    0.95510    0.04360    0.59030    0.66690    0.85840    1.10100    1.42000  # hc,c1,c,oh
dihedral_coeff	35 ebt    0.96810    0.95510    0.04360    0.59030    0.66690    0.85840    1.10100    1.42000  # hc,c3h,c,o3e
dihedral_coeff	36 ebt    0.59030    0.66690    0.85840    0.96810    0.95510    0.04360    1.10100    1.42000  # hc,c3h,c,oc
dihedral_coeff	37 ebt    0.00000   -0.68900    0.00000    0.00000   -0.68900    0.00000    1.09820    1.09820  # hc,cp,cp,hc
dihedral_coeff	38 ebt    0.00000    4.26410    0.00000    0.00000   -1.58670    0.00000    1.09820    1.37680  # hc,cp,cp,oc
dihedral_coeff	39 ebt    1.01650    0.75530   -0.46090    1.01650    0.75530   -0.46090    1.42000    1.42000  # o3e,c3h,c,oc
dihedral_coeff	40 ebt    1.01650    0.75530   -0.46090    1.01650    0.75530   -0.46090    1.42000    1.42000  # oc,c,c1,oc
dihedral_coeff	41 ebt    1.01650    0.75530   -0.46090    1.01650    0.75530   -0.46090    1.42000    1.42000  # oc,c1,c,oh

# AngleTorsion Coeffs

dihedral_coeff	 1 at   -0.24540    0.00000   -0.11360    0.31130    0.45160   -0.19880  112.67000  110.77000  # c,c,c,hc
dihedral_coeff	 2 at    0.96720   -0.75660   -1.23310    0.56230   -0.30410   -0.40150  112.67000  111.27000  # c,c,c,oc
dihedral_coeff	 3 at   -2.74660    1.48770   -0.89550    0.56760    0.94500    0.07030  111.27000  104.50000  # c,c,oc,c1
dihedral_coeff	 4 at    0.00000    0.00000    0.00000    0.00000    0.00000    0.00000  111.27000  102.96950  # c,c,oc,cp
dihedral_coeff	 5 at   -0.24540    0.00000   -0.11360    0.31130    0.45160   -0.19880  112.67000  110.77000  # c,c1,c,hc
dihedral_coeff	 6 at    0.96720   -0.75660   -1.23310    0.56230   -0.30410   -0.40150  112.67000  111.27000  # c,c1,c,oc
dihedral_coeff	 7 at    0.56230   -0.30410   -0.40150    0.96720   -0.75660   -1.23310  112.67000  111.27000  # c,c1,c,oh
dihedral_coeff	 8 at    0.56760    0.94500    0.07030   -2.74660    1.48770   -0.89550  111.27000  104.50000  # c,c1,oc,c
dihedral_coeff	 9 at   -0.24540    0.00000   -0.11360    0.31130    0.45160   -0.19880  112.67000  110.77000  # c,c3h,c,hc
dihedral_coeff	10 at    0.56230   -0.30410   -0.40150    0.96720   -0.75660   -1.23310  112.67000  111.27000  # c,c3h,c,o3e
dihedral_coeff	11 at    0.96720   -0.75660   -1.23310    0.56230   -0.30410   -0.40150  112.67000  111.27000  # c,c3h,c,oc
dihedral_coeff	12 at   -2.74660    1.48770   -0.89550    0.56760    0.94500    0.07030  111.27000  104.50000  # c,c3h,o3e,c
dihedral_coeff	13 at   -0.77770    0.43400   -0.66530   -1.82340    1.63930    0.51440  104.50000  108.72800  # c,o3e,c3h,hc
dihedral_coeff	14 at   -0.77770    0.43400   -0.66530   -1.82340    1.63930    0.51440  104.50000  108.72800  # c,oc,c1,hc
dihedral_coeff	15 at    0.00000    0.00000    0.00000    0.00000    0.00000    0.00000  102.96950  123.42000  # c,oc,cp,cp
dihedral_coeff	16 at    0.56760    0.94500    0.07030   -2.74660    1.48770   -0.89550  111.27000  104.50000  # c1,c,oc,c1
dihedral_coeff	17 at    0.00000    0.00000    0.00000    0.00000    0.00000    0.00000  111.27000  102.96950  # c1,c,oc,cp
dihedral_coeff	18 at    0.00000    0.00000    0.00000    0.00000    0.00000    0.00000  111.27000  109.00000  # c1,c,oh,h
dihedral_coeff	19 at   -1.82340    1.63930    0.51440   -0.77770    0.43400   -0.66530  104.50000  108.72800  # c1,oc,c,hc
dihedral_coeff	20 at    0.00000    0.00000    0.00000    0.00000    0.00000    0.00000  111.27000  102.96950  # c3h,c,oc,cp
dihedral_coeff	21 at   -1.82340    1.63930    0.51440   -0.77770    0.43400   -0.66530  104.50000  108.72800  # c3h,o3e,c,hc
dihedral_coeff	22 at    1.97670    1.02390    0.00000    1.97670    1.02390    0.00000  118.90000  118.90000  # cp,cp,cp,cp
dihedral_coeff	23 at    0.00000    2.50140    0.00000    0.00000    2.71470    0.00000  118.90000  117.94000  # cp,cp,cp,hc
dihedral_coeff	24 at    0.00000   10.01550    0.00000    0.00000    1.74040    0.00000  118.90000  123.42000  # cp,cp,cp,oc
dihedral_coeff	25 at    0.00000    0.00000    0.00000    0.00000    0.00000    0.00000  102.96950  108.72800  # cp,oc,c,hc
dihedral_coeff	26 at    0.00000    0.00000    0.00000    0.00000    0.00000    0.00000  109.00000  108.72800  # h,oh,c,hc
dihedral_coeff	27 at   -0.80850    0.55690   -0.24660   -0.80850    0.55690   -0.24660  110.77000  110.77000  # hc,c,c,hc
dihedral_coeff	28 at   -0.18920    0.49180    0.72730    2.36680    2.49200   -1.01220  110.77000  111.27000  # hc,c,c,oc
dihedral_coeff	29 at   -0.80850    0.55690   -0.24660   -0.80850    0.55690   -0.24660  110.77000  110.77000  # hc,c,c1,hc
dihedral_coeff	30 at   -0.18920    0.49180    0.72730    2.36680    2.49200   -1.01220  110.77000  111.27000  # hc,c,c1,oc
dihedral_coeff	31 at   -0.80850    0.55690   -0.24660   -0.80850    0.55690   -0.24660  110.77000  110.77000  # hc,c,c3h,hc
dihedral_coeff	32 at    2.36680    2.49200   -1.01220   -0.18920    0.49180    0.72730  110.77000  111.27000  # hc,c,c3h,o3e
dihedral_coeff	33 at   -0.18920    0.49180    0.72730    2.36680    2.49200   -1.01220  110.77000  111.27000  # hc,c1,c,oc
dihedral_coeff	34 at    2.36680    2.49200   -1.01220   -0.18920    0.49180    0.72730  110.77000  111.27000  # hc,c1,c,oh
dihedral_coeff	35 at    2.36680    2.49200   -1.01220   -0.18920    0.49180    0.72730  110.77000  111.27000  # hc,c3h,c,o3e
dihedral_coeff	36 at   -0.18920    0.49180    0.72730    2.36680    2.49200   -1.01220  110.77000  111.27000  # hc,c3h,c,oc
dihedral_coeff	37 at    0.00000    2.45010    0.00000    0.00000    2.45010    0.00000  117.94000  117.94000  # hc,cp,cp,hc
dihedral_coeff	38 at    0.00000    2.57060    0.00000    0.00000    1.87290    0.00000  117.94000  123.42000  # hc,cp,cp,oc
dihedral_coeff	39 at    0.55110    0.97370   -0.66730    0.55110    0.97370   -0.66730  111.27000  111.27000  # o3e,c3h,c,oc
dihedral_coeff	40 at    0.55110    0.97370   -0.66730    0.55110    0.97370   -0.66730  111.27000  111.27000  # oc,c,c1,oc
dihedral_coeff	41 at    0.55110    0.97370   -0.66730    0.55110    0.97370   -0.66730  111.27000  111.27000  # oc,c1,c,oh

# AngleAngleTorsion Coeffs

dihedral_coeff	 1 aat  -16.16400  112.67000  110.77000  # c,c,c,hc
dihedral_coeff	 2 aat  -29.04200  112.67000  111.27000  # c,c,c,oc
dihedral_coeff	 3 aat  -19.00590  111.27000  104.50000  # c,c,oc,c1
dihedral_coeff	 4 aat    0.00000  111.27000  102.96950  # c,c,oc,cp
dihedral_coeff	 5 aat  -16.16400  112.67000  110.77000  # c,c1,c,hc
dihedral_coeff	 6 aat  -29.04200  112.67000  111.27000  # c,c1,c,oc
dihedral_coeff	 7 aat  -29.04200  112.67000  111.27000  # c,c1,c,oh
dihedral_coeff	 8 aat  -19.00590  111.27000  104.50000  # c,c1,oc,c
dihedral_coeff	 9 aat  -16.16400  112.67000  110.77000  # c,c3h,c,hc
dihedral_coeff	10 aat  -29.04200  112.67000  111.27000  # c,c3h,c,o3e
dihedral_coeff	11 aat  -29.04200  112.67000  111.27000  # c,c3h,c,oc
dihedral_coeff	12 aat  -19.00590  111.27000  104.50000  # c,c3h,o3e,c
dihedral_coeff	13 aat  -16.44380  104.50000  108.72800  # c,o3e,c3h,hc
dihedral_coeff	14 aat  -16.44380  104.50000  108.72800  # c,oc,c1,hc
dihedral_coeff	15 aat    0.00000  102.96950  123.42000  # c,oc,cp,cp
dihedral_coeff	16 aat  -19.00590  111.27000  104.50000  # c1,c,oc,c1
dihedral_coeff	17 aat    0.00000  111.27000  102.96950  # c1,c,oc,cp
dihedral_coeff	18 aat    0.00000  111.27000  109.00000  # c1,c,oh,h
dihedral_coeff	19 aat  -16.44380  104.50000  108.72800  # c1,oc,c,hc
dihedral_coeff	20 aat    0.00000  111.27000  102.96950  # c3h,c,oc,cp
dihedral_coeff	21 aat  -16.44380  104.50000  108.72800  # c3h,o3e,c,hc
dihedral_coeff	22 aat    0.00000  118.90000  118.90000  # cp,cp,cp,cp
dihedral_coeff	23 aat   -4.81410  118.90000  117.94000  # cp,cp,cp,hc
dihedral_coeff	24 aat  -21.02470  118.90000  123.42000  # cp,cp,cp,oc
dihedral_coeff	25 aat    0.00000  102.96950  108.72800  # cp,oc,c,hc
dihedral_coeff	26 aat    0.00000  109.00000  108.72800  # h,oh,c,hc
dihedral_coeff	27 aat  -12.56400  110.77000  110.77000  # hc,c,c,hc
dihedral_coeff	28 aat  -20.20060  110.77000  111.27000  # hc,c,c,oc
dihedral_coeff	29 aat  -12.56400  110.77000  110.77000  # hc,c,c1,hc
dihedral_coeff	30 aat  -20.20060  110.77000  111.27000  # hc,c,c1,oc
dihedral_coeff	31 aat  -12.56400  110.77000  110.77000  # hc,c,c3h,hc
dihedral_coeff	32 aat  -20.20060  110.77000  111.27000  # hc,c,c3h,o3e
dihedral_coeff	33 aat  -20.20060  110.77000  111.27000  # hc,c1,c,oc
dihedral_coeff	34 aat  -20.20060  110.77000  111.27000  # hc,c1,c,oh
dihedral_coeff	35 aat  -20.20060  110.77000  111.27000  # hc,c3h,c,o3e
dihedral_coeff	36 aat  -20.20060  110.77000  111.27000  # hc,c3h,c,oc
dihedral_coeff	37 aat    0.35980  117.94000  117.94000  # hc,cp,cp,hc
dihedral_coeff	38 aat    4.22960  117.94000  123.42000  # hc,cp,cp,oc
dihedral_coeff	39 aat  -14.04840  111.27000  111.27000  # o3e,c3h,c,oc
dihedral_coeff	40 aat  -14.04840  111.27000  111.27000  # oc,c,c1,oc
dihedral_coeff	41 aat  -14.04840  111.27000  111.27000  # oc,c1,c,oh

# BondBond13 Coeffs

dihedral_coeff	 1 bb13    0.00000    1.53000    1.10100  # c,c,c,hc
dihedral_coeff	 2 bb13    0.00000    1.53000    1.42000  # c,c,c,oc
dihedral_coeff	 3 bb13    0.00000    1.53000    1.42000  # c,c,oc,c1
dihedral_coeff	 4 bb13    0.00000    1.53000    1.37680  # c,c,oc,cp
dihedral_coeff	 5 bb13    0.00000    1.53000    1.10100  # c,c1,c,hc
dihedral_coeff	 6 bb13    0.00000    1.53000    1.42000  # c,c1,c,oc
dihedral_coeff	 7 bb13    0.00000    1.53000    1.42000  # c,c1,c,oh
dihedral_coeff	 8 bb13    0.00000    1.53000    1.42000  # c,c1,oc,c
dihedral_coeff	 9 bb13    0.00000    1.53000    1.10100  # c,c3h,c,hc
dihedral_coeff	10 bb13    0.00000    1.53000    1.42000  # c,c3h,c,o3e
dihedral_coeff	11 bb13    0.00000    1.53000    1.42000  # c,c3h,c,oc
dihedral_coeff	12 bb13    0.00000    1.53000    1.42000  # c,c3h,o3e,c
dihedral_coeff	13 bb13    0.00000    1.42000    1.10100  # c,o3e,c3h,hc
dihedral_coeff	14 bb13    0.00000    1.42000    1.10100  # c,oc,c1,hc
dihedral_coeff	15 bb13    0.00000    1.42000    1.41700  # c,oc,cp,cp
dihedral_coeff	16 bb13    0.00000    1.53000    1.42000  # c1,c,oc,c1
dihedral_coeff	17 bb13    0.00000    1.53000    1.37680  # c1,c,oc,cp
dihedral_coeff	18 bb13    0.00000    1.53000    0.96000  # c1,c,oh,h
dihedral_coeff	19 bb13    0.00000    1.42000    1.10100  # c1,oc,c,hc
dihedral_coeff	20 bb13    0.00000    1.53000    1.37680  # c3h,c,oc,cp
dihedral_coeff	21 bb13    0.00000    1.42000    1.10100  # c3h,o3e,c,hc
dihedral_coeff	22 bb13   53.00000    1.41700    1.41700  # cp,cp,cp,cp
dihedral_coeff	23 bb13   -6.27410    1.41700    1.09820  # cp,cp,cp,hc
dihedral_coeff	24 bb13   -2.24360    1.41700    1.37680  # cp,cp,cp,oc
dihedral_coeff	25 bb13    0.00000    1.37680    1.10100  # cp,oc,c,hc
dihedral_coeff	26 bb13    0.00000    0.96000    1.10100  # h,oh,c,hc
dihedral_coeff	27 bb13    0.00000    1.10100    1.10100  # hc,c,c,hc
dihedral_coeff	28 bb13    0.00000    1.10100    1.42000  # hc,c,c,oc
dihedral_coeff	29 bb13    0.00000    1.10100    1.10100  # hc,c,c1,hc
dihedral_coeff	30 bb13    0.00000    1.10100    1.42000  # hc,c,c1,oc
dihedral_coeff	31 bb13    0.00000    1.10100    1.10100  # hc,c,c3h,hc
dihedral_coeff	32 bb13    0.00000    1.10100    1.42000  # hc,c,c3h,o3e
dihedral_coeff	33 bb13    0.00000    1.10100    1.42000  # hc,c1,c,oc
dihedral_coeff	34 bb13    0.00000    1.10100    1.42000  # hc,c1,c,oh
dihedral_coeff	35 bb13    0.00000    1.10100    1.42000  # hc,c3h,c,o3e
dihedral_coeff	36 bb13    0.00000    1.10100    1.42000  # hc,c3h,c,oc
dihedral_coeff	37 bb13   -1.70770    1.09820    1.09820  # hc,cp,cp,hc
dihedral_coeff	38 bb13    2.05170    1.09820    1.37680  # hc,cp,cp,oc
dihedral_coeff	39 bb13    0.00000    1.42000    1.42000  # o3e,c3h,c,oc
dihedral_coeff	40 bb13    0.00000    1.42000    1.42000  # oc,c,c1,oc
dihedral_coeff	41 bb13    0.00000    1.42000    1.42000  # oc,c1,c,oh

# Improper Coeffs

improper_coeff	 1    0.00000    0.00000  # c,c,c,hc
improper_coeff	 2    0.00000    0.00000  # c,c,hc,hc
improper_coeff	 3    0.00000    0.00000  # c,c,hc,oc
improper_coeff	 4    0.00000    0.00000  # c,c,oc,hc
improper_coeff	 5    0.00000    0.00000  # c,c1,hc,hc
improper_coeff	 6    0.00000    0.00000  # c,c1,hc,oc
improper_coeff	 7    0.00000    0.00000  # c,c1,hc,oh
improper_coeff	 8    0.00000    0.00000  # c,c1,oc,hc
improper_coeff	 9    0.00000    0.00000  # c,c3h,hc,hc
improper_coeff	10    0.00000    0.00000  # c,c3h,hc,oc
improper_coeff	11    0.00000    0.00000  # c,c3h,o3e,hc
improper_coeff	12    0.00000    0.00000  # c,hc,hc,o3e
improper_coeff	13    0.00000    0.00000  # c,hc,hc,oc
improper_coeff	14    0.00000    0.00000  # c,hc,hc,oh
improper_coeff	15    0.00000    0.00000  # c1,c,c,hc
improper_coeff	16    0.00000    0.00000  # c1,c,c,oc
improper_coeff	17    0.00000    0.00000  # c1,c,oc,hc
improper_coeff	18    0.00000    0.00000  # c3h,c,c,hc
improper_coeff	19    0.00000    0.00000  # c3h,c,c,o3e
improper_coeff	20    0.00000    0.00000  # c3h,c,o3e,hc
improper_coeff	21    4.89120    0.00000  # cp,cp,cp,hc
improper_coeff	22   13.04210    0.00000  # cp,cp,cp,oc

# AngleAngle Coeffs

improper_coeff	 1 aa   -1.31990   -1.31990    0.11840  112.67000  110.77000  110.77000  # c,c,c,hc
improper_coeff	 2 aa    0.27380   -0.48250    0.27380  110.77000  110.77000  107.66000  # c,c,hc,hc
improper_coeff	 3 aa    0.00000    0.00000    0.16890  110.77000  111.27000  108.72800  # c,c,hc,oc
improper_coeff	 4 aa    0.16890    0.00000    0.00000  111.27000  110.77000  108.72800  # c,c,oc,hc
improper_coeff	 5 aa    0.00000   -0.48250    0.00000  110.77000  110.77000  107.66000  # c,c1,hc,hc
improper_coeff	 6 aa    0.00000    0.00000    0.00000  110.77000  111.27000  108.72800  # c,c1,hc,oc
improper_coeff	 7 aa    0.00000    2.59260    0.00000  110.77000  111.27000  108.72800  # c,c1,hc,oh
improper_coeff	 8 aa    0.00000    0.00000    0.00000  111.27000  110.77000  108.72800  # c,c1,oc,hc
improper_coeff	 9 aa    0.00000   -0.48250    0.00000  110.77000  110.77000  107.66000  # c,c3h,hc,hc
improper_coeff	10 aa    0.00000    0.00000    0.00000  110.77000  111.27000  108.72800  # c,c3h,hc,oc
improper_coeff	11 aa    0.00000    2.59260    3.91770  111.27000  110.77000  108.72800  # c,c3h,o3e,hc
improper_coeff	12 aa    2.42590    2.42590    2.12830  107.66000  108.72800  108.72800  # c,hc,hc,o3e
improper_coeff	13 aa    0.00000    0.00000    2.12830  107.66000  108.72800  108.72800  # c,hc,hc,oc
improper_coeff	14 aa    2.42590    2.42590    2.12830  107.66000  108.72800  108.72800  # c,hc,hc,oh
improper_coeff	15 aa   -1.31990   -1.31990    0.11840  112.67000  110.77000  110.77000  # c1,c,c,hc
improper_coeff	16 aa    0.00000    0.00000   -3.57440  112.67000  111.27000  111.27000  # c1,c,c,oc
improper_coeff	17 aa    0.16890    0.00000    0.00000  111.27000  110.77000  108.72800  # c1,c,oc,hc
improper_coeff	18 aa   -1.31990   -1.31990    0.11840  112.67000  110.77000  110.77000  # c3h,c,c,hc
improper_coeff	19 aa   -0.83300   -0.83300   -3.57440  112.67000  111.27000  111.27000  # c3h,c,c,o3e
improper_coeff	20 aa    0.16890    2.59260    3.91770  111.27000  110.77000  108.72800  # c3h,c,o3e,hc
improper_coeff	21 aa    0.00000    0.00000    0.00000  118.90000  117.94000  117.94000  # cp,cp,cp,hc
improper_coeff	22 aa    0.00000    0.00000    0.00000  118.90000  123.42000  123.42000  # cp,cp,cp,oc

# ------------------------------- OPT Section -------------------------------
minimize 1.0e-5 1.0e-7 100000 400000
Generated 36 of 36 mixed pair_coeff terms from sixthpower/geometric mixing rule
Step          Temp          E_pair         E_mol          TotEng         Press
0   0             -656.27853      17824.832      17168.553     -1935.394
Loop time of 2.29222 on 6 procs for 29 steps with 2996 atoms

Minimization stats:
  Stopping criterion = energy tolerance
  Energy initial, next-to-last, final =
  Force two-norm initial, final = 1959.6229 1383.6384
  Force max component initial, final = 153.29177 1055.308
  Final line search alpha, max atom move = 5.8979783e-07 0.00062241837
  Iterations, force evaluations = 29 94

# ------------------------------- Run Section -------------------------------
#

thermo_style custom step temp pe evdwl ecoul ebond eangle edihed eimp density vol
thermo          100

neigh_modify delay 0 every 1 check yes

fix Langevin  all langevin 300 300 100.0 482432
fix moveLimit all nve/limit 0.1
run 10000
Generated 36 of 36 mixed pair_coeff terms from sixthpower/geometric mixing rule
Step          Temp          PotEng         E_vdwl         E_coul         E_bond        E_angle        E_dihed        E_impro        Density         Volume
29   0              14617.415     -565.38251     -231.97941      535.12863      15487.551     -546.23568     -61.666355      0.44999999     78744.633
Averages over the last 51 of 102 rows, steps 5100 to 10029:
Temp PotEng E_vdwl E_coul E_bond E_angle E_dihed E_impro Density Volume
300.601 15771.4 -945.115 -435.113 1451.24 15962 -250.864 -10.8181 0.45 78744.6
Loop time of 155.066 on 6 procs for 10000 steps with 2996 atoms

unfix Langevin
unfix moveLimit

fix 		relax all npt temp 300.0 300.0 100 iso 1.0 1.0 1000
run 20000
Generated 36 of 36 mixed pair_coeff terms from sixthpower/geometric mixing rule
Step          Temp          PotEng         E_vdwl         E_coul         E_bond        E_angle        E_dihed        E_impro        Density         Volume
10029   301.08606      15645.183     -978.15363     -526.0922       1451.0807      15994.46      -289.37076     -6.7412035      0.44999999     78744.633
Averages over the last 101 of 202 rows, steps 20100 to 30029:
Temp PotEng E_vdwl E_coul E_bond E_angle E_dihed E_impro Density Volume
299.786 14873.2 -1621.13 -569.964 1390.52 15954 -265.315 -14.8617 0.911022 39029.6
Loop time of 438.461 on 6 procs for 20000 steps with 2996 atoms

unfix relax

molecule 	pre1 cleaned_pre-mol
Read molecule template pre1:
  1 molecules
  0 fragments
  24 atoms with max type 8
  23 bonds with max type 14
  40 angles with max type 28
  48 dihedrals with max type 39
  24 impropers with max type 20
molecule	post1 cleaned_post-mol
Read molecule template post1:
  1 molecules
  0 fragments
  24 atoms with max type 8
  23 bonds with max type 14
  40 angles with max type 27
  51 dihedrals with max type 40
  24 impropers with max type 17

fix		fxrct all bond/react stabilization yes statted_grp .03 		 react rxn1 all 100 0.0 4.0 pre1 post1 semi.map stabilize_steps 100 molecule inter
dynamic group bond_react_MASTER_group defined
dynamic group statted_grp_REACT defined
fix 		npt statted_grp_REACT npt temp 500.0 500.0 100 iso 1.0 1.0 1000
fix 		reacted bond_react_MASTER_group temp/rescale 1 300.0 300.0 1 1

thermo_style custom step temp pe evdwl ecoul ebond eangle edihed eimp density vol f_fxrct[*]
thermo     100

compute 1 all property/local btype batom1 batom2

dump DumpPos all custom 100 dump.pos id type x y z mol
dump DumpBond all local 100 bonds.dump index c_1[*]

run 200000

CITE-CITE-CITE-CITE-CITE-CITE-CITE-CITE-CITE-CITE-CITE-CITE-CITE

Your simulation uses code contributions which should be cited:

- fix bond/react: reacter.org doi:10.1016/j.polymer.2017.09.038, doi:10.1021/acs.macromol.0c02012

@Article{Gissinger17,
 author = {J. R. Gissinger and B. D. Jensen and K. E. Wise},
 title = {Modeling Chemical Reactions in Classical Molecular Dynamics Simulations},
 journal = {Polymer},
 year =    2017,
 volume =  128,
 pages =   {211--217}
}

@Article{Gissinger20,
 author = {J. R. Gissinger, B. D. Jensen, K. E. Wise},
 title = {{REACTER}: A Heuristic Method for Reactive Molecular Dynamics},
 journal = {Macromolecules},
 year =    2020,
 volume =  53,
 number =  22,
 pages =   {9953--9961}
}

CITE-CITE-CITE-CITE-CITE-CITE-CITE-CITE-CITE-CITE-CITE-CITE-CITE

Generated 36 of 36 mixed pair_coeff terms from sixthpower/geometric mixing rule
Step          Temp          PotEng         E_vdwl         E_coul         E_bond        E_angle        E_dihed        E_impro        Density         Volume       f_fxrct[1]
30029   300.1182       14878.233     -1691.8955     -507.4251       1447.5812      15930.657     -292.24853     -8.4360108      0.96812854     36601.632      0
Averages over the last 1001 of 2002 rows, steps 130100 to 230029:
Temp PotEng E_vdwl E_coul E_bond E_angle E_dihed E_impro Density Volume f_fxrct[1]
499.996 5635.02 -1519.78 -700.868 4055.32 4015.12 -330.742 115.964 0.988391 35878.6 112.663
Loop time of 4106.06 on 6 procs for 200000 steps with 2996 atoms

write_data reaxed.data nocoeff nofix
System init for write_data ...
Generated 36 of 36 mixed pair_coeff terms from sixthpower/geometric mixing rule
unfix reacted
unfix npt
unfix fxrct

thermo_style custom step temp pe evdwl ecoul ebond eangle edihed eimp density vol
fix 		relax all npt temp 600.0 600.0 100 iso 1.0 1.0 1000
run 1000
Generated 36 of 36 mixed pair_coeff terms from sixthpower/geometric mixing rule
Step          Temp          PotEng         E_vdwl         E_coul         E_bond        E_angle        E_dihed        E_impro        Density         Volume
230029   498.58502      2576.7751     -1575.1543     -699.01673      1884.0835      3228.3292     -381.7378       120.2712       0.9882997      35854.594
Averages over the last 6 of 12 rows, steps 230600 to 231029:
Temp PotEng E_vdwl E_coul E_bond E_angle E_dihed E_impro Density Volume
602.899 3449.59 -1490.55 -754.811 2230.38 3537.28 -211.649 138.945 0.969289 36563.1
Loop time of 4.27428 on 6 procs for 1000 steps with 2996 atoms
