LAMMPS (22 Dec 2022)
# PREREQUISITES:
#
#     You must use moltemplate.sh to create 3 files:
#        system.data  system.in.init  system.in.settings
#     (Follow the instructions in README_setup.sh,
#      or run the file as a script using ./README_setup.sh)

# ------------------------------- Initialization Section --------------------

units real
atom_style full
pair_style lj/class2/coul/long 10.0 10.0
bond_style class2
angle_style class2
dihedral_style class2
improper_style class2
kspace_style pppm/cg 0.001

pair_modify     mix sixthpower tail yes
special_bonds   lj/coul 0 0 1

# ------------------------------- Atom Definition Section -------------------

read_data       "reacted_lmp.data"
Reading data file ...
  orthogonal box = (4.6950134 4.6950134 4.6950134) to (44.041964 44.041964 44.041964)
  reading atoms ...
  5032 atoms
  reading velocities ...
  5032 velocities
  scanning bonds ...
  scanning angles ...
  scanning dihedrals ...
  scanning impropers ...
  reading bonds ...
  5176 bonds
  reading angles ...
  9424 angles
  reading dihedrals ...
  13200 dihedrals
  reading impropers ...
  5168 impropers
Finding 1-2 1-3 1-4 neighbors ...
     4 = max # of 1-2 neighbors
    12 = max # of 1-3 neighbors
    16 = max # of special neighbors

include calc.pram

# Masses

mass		1    12.01115  # c
mass		2    12.01115  # cp
mass		3     1.00797  # h
mass		4     1.00797  # hc
mass		5    15.99940  # o4e
mass		6    15.99940  # oc
mass		7    15.99940  # oh

# Potentials

pair_coeff	 1  1    0.05400    4.01000  # c,c
pair_coeff	 2  2    0.06400    4.01000  # cp,cp
pair_coeff	 3  3    0.02000    2.99500  # h,h
pair_coeff	 4  4    0.02000    2.99500  # hc,hc
pair_coeff	 5  5    0.24000    3.53500  # o4e,o4e
pair_coeff	 6  6    0.24000    3.53500  # oc,oc
pair_coeff	 7  7    0.24000    3.53500  # oh,oh

# Bond Coeffs

bond_coeff	1    1.53000  299.67000 -501.77000  679.81000  # c,c
bond_coeff	2    1.50100  321.90210 -521.82080  572.16280  # c,cp
bond_coeff	3    1.10100  345.00000 -691.89000  844.60000  # c,hc
bond_coeff	4    1.42000  400.39540 -835.19510 1313.01420  # c,o4e
bond_coeff	5    1.42000  400.39540 -835.19510 1313.01420  # c,oc
bond_coeff	6    1.42000  400.39540 -835.19510 1313.01420  # c,oh
bond_coeff	7    1.41700  470.83610 -627.61790 1327.63450  # cp,cp
bond_coeff	8    1.09820  372.82510 -803.45260  894.31730  # cp,hc
bond_coeff	9    0.96000  493.84800    0.00000    0.00000  # h,oh

# Angle Coeffs

angle_coeff	 1  112.67000   39.51600   -7.44300   -9.55830  # c,c,c
angle_coeff	 2  110.77000   41.45300  -10.60400    5.12900  # c,c,hc
angle_coeff	 3  111.27000   54.53810   -8.36420  -13.08380  # c,c,o4e
angle_coeff	 4  111.27000   54.53810   -8.36420  -13.08380  # c,c,oc
angle_coeff	 5  111.27000   54.53810   -8.36420  -13.08380  # c,c,oh
angle_coeff	 6  120.05000   44.71480  -22.73520    0.00000  # c,cp,cp
angle_coeff	 7  104.50000   35.74540  -10.00670   -6.27290  # c,o4e,c
angle_coeff	 8  104.50000   35.74540  -10.00670   -6.27290  # c,oc,c
angle_coeff	 9  109.00000   58.50000    0.00000    0.00000  # c,oh,h
angle_coeff	10  111.00000   44.32340   -9.44540    0.00000  # cp,c,hc
angle_coeff	11  110.50000   46.00000    0.00000    0.00000  # cp,c,oc
angle_coeff	12  118.90000   61.02260  -34.99310    0.00000  # cp,cp,cp
angle_coeff	13  117.94000   35.15580  -12.46820    0.00000  # cp,cp,hc
angle_coeff	14  107.66000   39.64100  -12.92100   -2.43180  # hc,c,hc
angle_coeff	15  108.72800   58.54460  -10.80880  -12.40060  # hc,c,o4e
angle_coeff	16  108.72800   58.54460  -10.80880  -12.40060  # hc,c,oc
angle_coeff	17  108.72800   58.54460  -10.80880  -12.40060  # hc,c,oh

# BondBond Coeffs

angle_coeff	 1 bb    0.00000    1.53000    1.53000  # c,c,c
angle_coeff	 2 bb    3.38720    1.53000    1.10100  # c,c,hc
angle_coeff	 3 bb   11.43180    1.53000    1.42000  # c,c,o4e
angle_coeff	 4 bb   11.43180    1.53000    1.42000  # c,c,oc
angle_coeff	 5 bb   11.43180    1.53000    1.42000  # c,c,oh
angle_coeff	 6 bb   12.06760    1.50100    1.41700  # c,cp,cp
angle_coeff	 7 bb   -7.11310    1.42000    1.42000  # c,o4e,c
angle_coeff	 8 bb   -7.11310    1.42000    1.42000  # c,oc,c
angle_coeff	 9 bb    0.00000    1.42000    0.96000  # c,oh,h
angle_coeff	10 bb    2.91680    1.50100    1.10100  # cp,c,hc
angle_coeff	11 bb    0.00000    1.50100    1.42000  # cp,c,oc
angle_coeff	12 bb   68.28560    1.41700    1.41700  # cp,cp,cp
angle_coeff	13 bb    1.07950    1.41700    1.09820  # cp,cp,hc
angle_coeff	14 bb    5.33160    1.10100    1.10100  # hc,c,hc
angle_coeff	15 bb   23.19790    1.10100    1.42000  # hc,c,o4e
angle_coeff	16 bb   23.19790    1.10100    1.42000  # hc,c,oc
angle_coeff	17 bb   23.19790    1.10100    1.42000  # hc,c,oh

# BondAngle Coeffs

angle_coeff	 1 ba    8.01600    8.01600    1.53000    1.53000  # c,c,c
angle_coeff	 2 ba   20.75400   11.42100    1.53000    1.10100  # c,c,hc
angle_coeff	 3 ba    2.68680   20.40330    1.53000    1.42000  # c,c,o4e
angle_coeff	 4 ba    2.68680   20.40330    1.53000    1.42000  # c,c,oc
angle_coeff	 5 ba    2.68680   20.40330    1.53000    1.42000  # c,c,oh
angle_coeff	 6 ba   47.05790   31.07710    1.50100    1.41700  # c,cp,cp
angle_coeff	 7 ba   -2.81120   -2.81120    1.42000    1.42000  # c,o4e,c
angle_coeff	 8 ba   -2.81120   -2.81120    1.42000    1.42000  # c,oc,c
angle_coeff	 9 ba    0.00000    0.00000    1.42000    0.96000  # c,oh,h
angle_coeff	10 ba   11.77170   26.46080    1.50100    1.10100  # cp,c,hc
angle_coeff	11 ba    0.00000    0.00000    1.50100    1.42000  # cp,c,oc
angle_coeff	12 ba   28.87080   28.87080    1.41700    1.41700  # cp,cp,cp
angle_coeff	13 ba   24.21830   20.00330    1.41700    1.09820  # cp,cp,hc
angle_coeff	14 ba   18.10300   18.10300    1.10100    1.10100  # hc,c,hc
angle_coeff	15 ba    4.61890   55.32700    1.10100    1.42000  # hc,c,o4e
angle_coeff	16 ba    4.61890   55.32700    1.10100    1.42000  # hc,c,oc
angle_coeff	17 ba    4.61890   55.32700    1.10100    1.42000  # hc,c,oh

# Dihedral Coeffs

dihedral_coeff	 1    0.00000    0.00000    0.05140    0.00000   -0.14300    0.00000  # c,c,c,c
dihedral_coeff	 2    0.00000    0.00000    0.03160    0.00000   -0.16810    0.00000  # c,c,c,hc
dihedral_coeff	 3    0.71370    0.00000    0.26600    0.00000   -0.25450    0.00000  # c,c,c,o4e
dihedral_coeff	 4    0.71370    0.00000    0.26600    0.00000   -0.25450    0.00000  # c,c,c,oc
dihedral_coeff	 5    0.71370    0.00000    0.26600    0.00000   -0.25450    0.00000  # c,c,c,oh
dihedral_coeff	 6   -0.52030    0.00000   -0.30280    0.00000   -0.34500    0.00000  # c,c,o4e,c
dihedral_coeff	 7   -0.52030    0.00000   -0.30280    0.00000   -0.34500    0.00000  # c,c,oc,c
dihedral_coeff	 8    0.00000    0.00000    0.00000    0.00000    0.13000  180.00000  # c,c,oh,h
dihedral_coeff	 9    0.00000    0.00000    4.40720    0.00000    0.00000    0.00000  # c,cp,cp,cp
dihedral_coeff	10    0.00000    0.00000    1.55900    0.00000    0.00000    0.00000  # c,cp,cp,hc
dihedral_coeff	11    0.53020    0.00000    0.00000    0.00000   -0.39660    0.00000  # c,o4e,c,hc
dihedral_coeff	12    0.00000    0.00000    0.00000    0.00000    0.13000  180.00000  # c,oc,c,cp
dihedral_coeff	13    0.53020    0.00000    0.00000    0.00000   -0.39660    0.00000  # c,oc,c,hc
dihedral_coeff	14   -0.28010    0.00000   -0.06780    0.00000   -0.01220    0.00000  # cp,cp,c,hc
dihedral_coeff	15    0.00000  180.00000    0.00000    0.00000    0.00000    0.00000  # cp,cp,c,oc
dihedral_coeff	16    8.36670    0.00000    1.19320    0.00000    0.00000    0.00000  # cp,cp,cp,cp
dihedral_coeff	17    0.00000    0.00000    3.96610    0.00000    0.00000    0.00000  # cp,cp,cp,hc
dihedral_coeff	18    0.00000    0.00000    0.00000    0.00000    0.13000  180.00000  # h,oh,c,hc
dihedral_coeff	19   -0.14320    0.00000    0.06170    0.00000   -0.10830    0.00000  # hc,c,c,hc
dihedral_coeff	20    0.00000    0.00000    1.87690    0.00000    0.00000    0.00000  # hc,cp,cp,hc

# MiddleBondTorsion Coeffs

dihedral_coeff	 1 mbt  -17.78700   -7.18770    0.00000    1.53000  # c,c,c,c
dihedral_coeff	 2 mbt  -14.87900   -3.65810   -0.31380    1.53000  # c,c,c,hc
dihedral_coeff	 3 mbt  -21.88420   -7.67640   -0.68680    1.53000  # c,c,c,o4e
dihedral_coeff	 4 mbt  -21.88420   -7.67640   -0.68680    1.53000  # c,c,c,oc
dihedral_coeff	 5 mbt  -21.88420   -7.67640   -0.68680    1.53000  # c,c,c,oh
dihedral_coeff	 6 mbt   -5.92880   -2.70070   -0.31750    1.42000  # c,c,o4e,c
dihedral_coeff	 7 mbt   -5.92880   -2.70070   -0.31750    1.42000  # c,c,oc,c
dihedral_coeff	 8 mbt    0.00000    0.00000    0.00000    1.42000  # c,c,oh,h
dihedral_coeff	 9 mbt    0.00000    9.17920    0.00000    1.41700  # c,cp,cp,cp
dihedral_coeff	10 mbt    0.00000    3.94210    0.00000    1.41700  # c,cp,cp,hc
dihedral_coeff	11 mbt   -6.80070   -4.65460   -1.41010    1.42000  # c,o4e,c,hc
dihedral_coeff	12 mbt    0.00000    0.00000    0.00000    1.42000  # c,oc,c,cp
dihedral_coeff	13 mbt   -6.80070   -4.65460   -1.41010    1.42000  # c,oc,c,hc
dihedral_coeff	14 mbt   -5.56790    1.40830    0.30100    1.50100  # cp,cp,c,hc
dihedral_coeff	15 mbt    0.00000    0.00000    0.00000    1.50100  # cp,cp,c,oc
dihedral_coeff	16 mbt   27.59890   -2.31200    0.00000    1.41700  # cp,cp,cp,cp
dihedral_coeff	17 mbt    0.00000   -1.15210    0.00000    1.41700  # cp,cp,cp,hc
dihedral_coeff	18 mbt    0.00000    0.00000    0.00000    1.42000  # h,oh,c,hc
dihedral_coeff	19 mbt  -14.26100   -0.53220   -0.48640    1.53000  # hc,c,c,hc
dihedral_coeff	20 mbt    0.00000    4.82280    0.00000    1.41700  # hc,cp,cp,hc

# EndBondTorsion Coeffs

dihedral_coeff	 1 ebt   -0.07320    0.00000    0.00000   -0.07320    0.00000    0.00000    1.53000    1.53000  # c,c,c,c
dihedral_coeff	 2 ebt    0.24860    0.24220   -0.09250    0.08140    0.05910    0.22190    1.53000    1.10100  # c,c,c,hc
dihedral_coeff	 3 ebt   -0.31900    0.44110   -0.71740    1.15380    0.84090   -0.91380    1.53000    1.42000  # c,c,c,o4e
dihedral_coeff	 4 ebt   -0.31900    0.44110   -0.71740    1.15380    0.84090   -0.91380    1.53000    1.42000  # c,c,c,oc
dihedral_coeff	 5 ebt   -0.31900    0.44110   -0.71740    1.15380    0.84090   -0.91380    1.53000    1.42000  # c,c,c,oh
dihedral_coeff	 6 ebt   -0.24560    1.05170   -0.77950    0.47410    1.26350    0.55760    1.53000    1.42000  # c,c,o4e,c
dihedral_coeff	 7 ebt   -0.24560    1.05170   -0.77950    0.47410    1.26350    0.55760    1.53000    1.42000  # c,c,oc,c
dihedral_coeff	 8 ebt    0.00000    0.00000    0.00000    0.00000    0.00000    0.00000    1.53000    0.96000  # c,c,oh,h
dihedral_coeff	 9 ebt    0.00000    0.24210    0.00000    0.00000   -0.69180    0.00000    1.50100    1.41700  # c,cp,cp,cp
dihedral_coeff	10 ebt    0.00000   -1.79700    0.00000    0.00000   -0.48790    0.00000    1.50100    1.09820  # c,cp,cp,hc
dihedral_coeff	11 ebt   -0.16200    0.15640   -1.14080   -0.60540    1.33390    0.96480    1.42000    1.10100  # c,o4e,c,hc
dihedral_coeff	12 ebt    0.00000    0.00000    0.00000    0.00000    0.00000    0.00000    1.42000    1.50100  # c,oc,c,cp
dihedral_coeff	13 ebt   -0.16200    0.15640   -1.14080   -0.60540    1.33390    0.96480    1.42000    1.10100  # c,oc,c,hc
dihedral_coeff	14 ebt    1.39970    0.77560    0.00000   -0.58350    1.12200    0.39780    1.41700    1.10100  # cp,cp,c,hc
dihedral_coeff	15 ebt    0.00000    0.00000    0.00000    0.00000    0.00000    0.00000    1.41700    1.42000  # cp,cp,c,oc
dihedral_coeff	16 ebt   -0.11850    6.32040    0.00000   -0.11850    6.32040    0.00000    1.41700    1.41700  # cp,cp,cp,cp
dihedral_coeff	17 ebt    0.00000   -0.46690    0.00000    0.00000   -6.89580    0.00000    1.41700    1.09820  # cp,cp,cp,hc
dihedral_coeff	18 ebt    0.00000    0.00000    0.00000    0.00000    0.00000    0.00000    0.96000    1.10100  # h,oh,c,hc
dihedral_coeff	19 ebt    0.21300    0.31200    0.07770    0.21300    0.31200    0.07770    1.10100    1.10100  # hc,c,c,hc
dihedral_coeff	20 ebt    0.00000   -0.68900    0.00000    0.00000   -0.68900    0.00000    1.09820    1.09820  # hc,cp,cp,hc

# AngleTorsion Coeffs

dihedral_coeff	 1 at    0.38860   -0.31390    0.13890    0.38860   -0.31390    0.13890  112.67000  112.67000  # c,c,c,c
dihedral_coeff	 2 at   -0.24540    0.00000   -0.11360    0.31130    0.45160   -0.19880  112.67000  110.77000  # c,c,c,hc
dihedral_coeff	 3 at    0.56230   -0.30410   -0.40150    0.96720   -0.75660   -1.23310  112.67000  111.27000  # c,c,c,o4e
dihedral_coeff	 4 at    0.56230   -0.30410   -0.40150    0.96720   -0.75660   -1.23310  112.67000  111.27000  # c,c,c,oc
dihedral_coeff	 5 at    0.56230   -0.30410   -0.40150    0.96720   -0.75660   -1.23310  112.67000  111.27000  # c,c,c,oh
dihedral_coeff	 6 at   -2.74660    1.48770   -0.89550    0.56760    0.94500    0.07030  111.27000  104.50000  # c,c,o4e,c
dihedral_coeff	 7 at   -2.74660    1.48770   -0.89550    0.56760    0.94500    0.07030  111.27000  104.50000  # c,c,oc,c
dihedral_coeff	 8 at    0.00000    0.00000    0.00000    0.00000    0.00000    0.00000  111.27000  109.00000  # c,c,oh,h
dihedral_coeff	 9 at    0.00000   -4.46830    0.00000    0.00000    3.89870    0.00000  120.05000  118.90000  # c,cp,cp,cp
dihedral_coeff	10 at    0.00000   -0.12420    0.00000    0.00000    3.46010    0.00000  120.05000  117.94000  # c,cp,cp,hc
dihedral_coeff	11 at   -0.77770    0.43400   -0.66530   -1.82340    1.63930    0.51440  104.50000  108.72800  # c,o4e,c,hc
dihedral_coeff	12 at    0.00000    0.00000    0.00000    0.00000    0.00000    0.00000  104.50000  110.50000  # c,oc,c,cp
dihedral_coeff	13 at   -0.77770    0.43400   -0.66530   -1.82340    1.63930    0.51440  104.50000  108.72800  # c,oc,c,hc
dihedral_coeff	14 at    4.62660    0.16320    0.04610    0.22510    0.65480    0.12370  120.05000  111.00000  # cp,cp,c,hc
dihedral_coeff	15 at    0.00000    0.00000    0.00000    0.00000    0.00000    0.00000  120.05000  110.50000  # cp,cp,c,oc
dihedral_coeff	16 at    1.97670    1.02390    0.00000    1.97670    1.02390    0.00000  118.90000  118.90000  # cp,cp,cp,cp
dihedral_coeff	17 at    0.00000    2.71470    0.00000    0.00000    2.50140    0.00000  118.90000  117.94000  # cp,cp,cp,hc
dihedral_coeff	18 at    0.00000    0.00000    0.00000    0.00000    0.00000    0.00000  109.00000  108.72800  # h,oh,c,hc
dihedral_coeff	19 at   -0.80850    0.55690   -0.24660   -0.80850    0.55690   -0.24660  110.77000  110.77000  # hc,c,c,hc
dihedral_coeff	20 at    0.00000    2.45010    0.00000    0.00000    2.45010    0.00000  117.94000  117.94000  # hc,cp,cp,hc

# AngleAngleTorsion Coeffs

dihedral_coeff	 1 aat  -22.04500  112.67000  112.67000  # c,c,c,c
dihedral_coeff	 2 aat  -16.16400  112.67000  110.77000  # c,c,c,hc
dihedral_coeff	 3 aat  -29.04200  112.67000  111.27000  # c,c,c,o4e
dihedral_coeff	 4 aat  -29.04200  112.67000  111.27000  # c,c,c,oc
dihedral_coeff	 5 aat  -29.04200  112.67000  111.27000  # c,c,c,oh
dihedral_coeff	 6 aat  -19.00590  111.27000  104.50000  # c,c,o4e,c
dihedral_coeff	 7 aat  -19.00590  111.27000  104.50000  # c,c,oc,c
dihedral_coeff	 8 aat    0.00000  111.27000  109.00000  # c,c,oh,h
dihedral_coeff	 9 aat  -14.40970  120.05000  118.90000  # c,cp,cp,cp
dihedral_coeff	10 aat    4.44440  120.05000  117.94000  # c,cp,cp,hc
dihedral_coeff	11 aat  -16.44380  104.50000  108.72800  # c,o4e,c,hc
dihedral_coeff	12 aat    0.00000  104.50000  110.50000  # c,oc,c,cp
dihedral_coeff	13 aat  -16.44380  104.50000  108.72800  # c,oc,c,hc
dihedral_coeff	14 aat   -5.88880  120.05000  111.00000  # cp,cp,c,hc
dihedral_coeff	15 aat    0.00000  120.05000  110.50000  # cp,cp,c,oc
dihedral_coeff	16 aat    0.00000  118.90000  118.90000  # cp,cp,cp,cp
dihedral_coeff	17 aat   -4.81410  118.90000  117.94000  # cp,cp,cp,hc
dihedral_coeff	18 aat    0.00000  109.00000  108.72800  # h,oh,c,hc
dihedral_coeff	19 aat  -12.56400  110.77000  110.77000  # hc,c,c,hc
dihedral_coeff	20 aat    0.35980  117.94000  117.94000  # hc,cp,cp,hc

# BondBond13 Coeffs

dihedral_coeff	 1 bb13    0.00000    1.53000    1.53000  # c,c,c,c
dihedral_coeff	 2 bb13    0.00000    1.53000    1.10100  # c,c,c,hc
dihedral_coeff	 3 bb13    0.00000    1.53000    1.42000  # c,c,c,o4e
dihedral_coeff	 4 bb13    0.00000    1.53000    1.42000  # c,c,c,oc
dihedral_coeff	 5 bb13    0.00000    1.53000    1.42000  # c,c,c,oh
dihedral_coeff	 6 bb13    0.00000    1.53000    1.42000  # c,c,o4e,c
dihedral_coeff	 7 bb13    0.00000    1.53000    1.42000  # c,c,oc,c
dihedral_coeff	 8 bb13    0.00000    1.53000    0.96000  # c,c,oh,h
dihedral_coeff	 9 bb13    2.50850    1.50100    1.41700  # c,cp,cp,cp
dihedral_coeff	10 bb13    0.87430    1.50100    1.09820  # c,cp,cp,hc
dihedral_coeff	11 bb13    0.00000    1.42000    1.10100  # c,o4e,c,hc
dihedral_coeff	12 bb13    0.00000    1.42000    1.50100  # c,oc,c,cp
dihedral_coeff	13 bb13    0.00000    1.42000    1.10100  # c,oc,c,hc
dihedral_coeff	14 bb13   -3.48260    1.41700    1.10100  # cp,cp,c,hc
dihedral_coeff	15 bb13    0.00000    1.41700    1.42000  # cp,cp,c,oc
dihedral_coeff	16 bb13   53.00000    1.41700    1.41700  # cp,cp,cp,cp
dihedral_coeff	17 bb13   -6.27410    1.41700    1.09820  # cp,cp,cp,hc
dihedral_coeff	18 bb13    0.00000    0.96000    1.10100  # h,oh,c,hc
dihedral_coeff	19 bb13    0.00000    1.10100    1.10100  # hc,c,c,hc
dihedral_coeff	20 bb13   -1.70770    1.09820    1.09820  # hc,cp,cp,hc

# Improper Coeffs

improper_coeff	 1    0.00000    0.00000  # c,c,c,c
improper_coeff	 2    0.00000    0.00000  # c,c,c,hc
improper_coeff	 3    0.00000    0.00000  # c,c,hc,hc
improper_coeff	 4    0.00000    0.00000  # c,c,hc,o4e
improper_coeff	 5    0.00000    0.00000  # c,c,hc,oc
improper_coeff	 6    0.00000    0.00000  # c,c,o4e,hc
improper_coeff	 7    0.00000    0.00000  # c,c,oc,hc
improper_coeff	 8    0.00000    0.00000  # c,c,oh,hc
improper_coeff	 9    0.00000    0.00000  # c,cp,hc,hc
improper_coeff	10    0.00000    0.00000  # c,cp,hc,oc
improper_coeff	11    0.00000    0.00000  # c,hc,hc,hc
improper_coeff	12    0.00000    0.00000  # c,hc,hc,o4e
improper_coeff	13    0.00000    0.00000  # c,hc,hc,oc
improper_coeff	14    0.00000    0.00000  # c,hc,hc,oh
improper_coeff	15    7.81530    0.00000  # cp,c,cp,cp
improper_coeff	16    4.89120    0.00000  # cp,cp,cp,hc

# AngleAngle Coeffs

improper_coeff	 1 aa   -0.17290   -0.17290   -0.17290  112.67000  112.67000  112.67000  # c,c,c,c
improper_coeff	 2 aa   -1.31990   -1.31990    0.11840  112.67000  110.77000  110.77000  # c,c,c,hc
improper_coeff	 3 aa    0.27380   -0.48250    0.27380  110.77000  110.77000  107.66000  # c,c,hc,hc
improper_coeff	 4 aa    3.91770    2.59260    0.16890  110.77000  111.27000  108.72800  # c,c,hc,o4e
improper_coeff	 5 aa    3.91770    2.59260    0.16890  110.77000  111.27000  108.72800  # c,c,hc,oc
improper_coeff	 6 aa    0.16890    2.59260    3.91770  111.27000  110.77000  108.72800  # c,c,o4e,hc
improper_coeff	 7 aa    0.16890    2.59260    3.91770  111.27000  110.77000  108.72800  # c,c,oc,hc
improper_coeff	 8 aa    0.16890    2.59260    3.91770  111.27000  110.77000  108.72800  # c,c,oh,hc
improper_coeff	 9 aa    0.00000    3.01180    0.00000  111.00000  111.00000  107.66000  # c,cp,hc,hc
improper_coeff	10 aa    0.00000    0.00000    0.00000  111.00000  110.50000  108.72800  # c,cp,hc,oc
improper_coeff	11 aa   -0.31570   -0.31570   -0.31570  107.66000  107.66000  107.66000  # c,hc,hc,hc
improper_coeff	12 aa    2.42590    2.42590    2.12830  107.66000  108.72800  108.72800  # c,hc,hc,o4e
improper_coeff	13 aa    2.42590    2.42590    2.12830  107.66000  108.72800  108.72800  # c,hc,hc,oc
improper_coeff	14 aa    2.42590    2.42590    2.12830  107.66000  108.72800  108.72800  # c,hc,hc,oh
improper_coeff	15 aa    0.00000    0.00000    0.00000  120.05000  120.05000  118.90000  # cp,c,cp,cp
improper_coeff	16 aa    0.00000    0.00000    0.00000  118.90000  117.94000  117.94000  # cp,cp,cp,hc

# ------------------------------- OPT Section -------------------------------
minimize 1.0e-5 1.0e-7 100000 400000
PPPM initialization ...
  G vector (1/distance) = 0.11353295
  grid = 4 4 4
  stencil order = 5
  estimated absolute RMS force accuracy = 0.2854615
  estimated relative force accuracy = 0.00085965884
  3d grid and FFT values/proc = 294 4
Generated 21 of 21 mixed pair_coeff terms from sixthpower/sixthpower mixing rule
  PPPM/cg optimization cutoff: 1e-05
  Total charged atoms: 94.0%
  Min/max charged atoms/proc: 92.9% 95.1%
Step          Temp          E_pair         E_mol          TotEng         Press
0   613.80584      2034.4913      6632.7163      17872.119      1070.9874
Loop time of 1.03915 on 24 procs for 91 steps with 5032 atoms

Minimization stats:
  Stopping criterion = linesearch alpha is zero
  Energy initial, next-to-last, final =
  Force two-norm initial, final = 3411.6474 68.561654
  Force max component initial, final = 172.97552 5.9412446
  Final line search alpha, max atom move = 1.7425444e-12 1.0352882e-11
  Iterations, force evaluations = 91 252

# ------------------------------- Run Section -------------------------------
#

timestep 0.25
neighbor        2.0 bin
neigh_modify    delay 0 every 1 check yes

thermo_style custom step temp pe evdwl ecoul ebond eangle edihed eimp density vol
thermo 20000

variable        Rho equal density
variable        Temp equal temp
variable        Volume equal vol
fix             fDENS all ave/time 100 100 300000 v_Temp v_Rho v_Volume file temp_vs_density.txt

label           loop
variable        a loop 26
variable        b equal 600-20*($a-1)
variable        b equal 600-20*(1-1)
fix             fMOM all momentum 100 linear 1 1 1 angular
fix             fNPT all npt temp $b $b $(100.0*dt) iso 1 1 $(100.0*dt)
fix             fNPT all npt temp 600 $b $(100.0*dt) iso 1 1 $(100.0*dt)
fix             fNPT all npt temp 600 600 $(100.0*dt) iso 1 1 $(100.0*dt)
fix             fNPT all npt temp 600 600 25 iso 1 1 $(100.0*dt)
fix             fNPT all npt temp 600 600 25 iso 1 1 25
run             1200000
PPPM initialization ...
  G vector (1/distance) = 0.11353295
  grid = 4 4 4
  stencil order = 5
  estimated absolute RMS force accuracy = 0.2854615
  estimated relative force accuracy = 0.00085965884
  3d grid and FFT values/proc = 294 4
Generated 21 of 21 mixed pair_coeff terms from sixthpower/sixthpower mixing rule
Step          Temp          PotEng         E_vdwl         E_coul         E_bond        E_angle        E_dihed        E_impro        Density         Volume
91   613.80584     -251.51525     -16.525297      2609.4807      703.09573      996.93312     -3248.3377      1.1611634      0.85517509     60916.259
Averages over the last 31 of 62 rows, steps 620000 to 1200091:
Temp PotEng E_vdwl E_coul E_bond E_angle E_dihed E_impro Density Volume
599.694 8485.12 610.785 2596.4 4089.07 4482.24 -2119.37 122.798 0.864235 60286.5
Loop time of 3664.66 on 24 procs for 1200000 steps with 5032 atoms

unfix           fNPT
unfix           fMOM
next            a
jump            SELF loop
variable        a loop 26
variable        b equal 600-20*($a-1)
variable        b equal 600-20*(2-1)
fix             fMOM all momentum 100 linear 1 1 1 angular
fix             fNPT all npt temp $b $b $(100.0*dt) iso 1 1 $(100.0*dt)
fix             fNPT all npt temp 580 $b $(100.0*dt) iso 1 1 $(100.0*dt)
fix             fNPT all npt temp 580 580 $(100.0*dt) iso 1 1 $(100.0*dt)
fix             fNPT all npt temp 580 580 25 iso 1 1 $(100.0*dt)
fix             fNPT all npt temp 580 580 25 iso 1 1 25
run             1200000
PPPM initialization ...
  G vector (1/distance) = 0.11347049
  grid = 4 4 4
  stencil order = 5
  estimated absolute RMS force accuracy = 0.28554522
  estimated relative force accuracy = 0.00085991095
  3d grid and FFT values/proc = 294 4
Generated 21 of 21 mixed pair_coeff terms from sixthpower/sixthpower mixing rule
Step          Temp          PotEng         E_vdwl         E_coul         E_bond        E_angle        E_dihed        E_impro        Density         Volume
1200091   609.36587      8836.1828      634.91672      2618.969       4246.9645      4610.0401     -2117.2906      139.38279      0.85325373     61053.43
Averages over the last 31 of 62 rows, steps 1820000 to 2400091:
Temp PotEng E_vdwl E_coul E_bond E_angle E_dihed E_impro Density Volume
580.327 8178.99 588.304 2590.38 3977.81 4346.13 -2146.91 119.597 0.870169 59875.3
Loop time of 3717.08 on 24 procs for 1200000 steps with 5032 atoms

unfix           fNPT
unfix           fMOM
next            a
jump            SELF loop
variable        a loop 26
variable        b equal 600-20*($a-1)
variable        b equal 600-20*(3-1)
fix             fMOM all momentum 100 linear 1 1 1 angular
fix             fNPT all npt temp $b $b $(100.0*dt) iso 1 1 $(100.0*dt)
fix             fNPT all npt temp 560 $b $(100.0*dt) iso 1 1 $(100.0*dt)
fix             fNPT all npt temp 560 560 $(100.0*dt) iso 1 1 $(100.0*dt)
fix             fNPT all npt temp 560 560 25 iso 1 1 $(100.0*dt)
fix             fNPT all npt temp 560 560 25 iso 1 1 25
run             1200000
PPPM initialization ...
  G vector (1/distance) = 0.11400359
  grid = 4 4 4
  stencil order = 5
  estimated absolute RMS force accuracy = 0.2848213
  estimated relative force accuracy = 0.00085773088
  3d grid and FFT values/proc = 294 4
Generated 21 of 21 mixed pair_coeff terms from sixthpower/sixthpower mixing rule
Step          Temp          PotEng         E_vdwl         E_coul         E_bond        E_angle        E_dihed        E_impro        Density         Volume
2400091   592.57269      7967.386       582.31542      2582.0533      3853.5274      4265.681      -2121.949       108.82743      0.86977382     59893.81
Averages over the last 31 of 62 rows, steps 3020000 to 3600091:
Temp PotEng E_vdwl E_coul E_bond E_angle E_dihed E_impro Density Volume
559.214 7796.59 520.001 2595.53 3831.13 4209.54 -2172.05 115.014 0.882836 59018.5
Loop time of 3657.52 on 24 procs for 1200000 steps with 5032 atoms

unfix           fNPT
unfix           fMOM
next            a
jump            SELF loop
variable        a loop 26
variable        b equal 600-20*($a-1)
variable        b equal 600-20*(4-1)
fix             fMOM all momentum 100 linear 1 1 1 angular
fix             fNPT all npt temp $b $b $(100.0*dt) iso 1 1 $(100.0*dt)
fix             fNPT all npt temp 540 $b $(100.0*dt) iso 1 1 $(100.0*dt)
fix             fNPT all npt temp 540 540 $(100.0*dt) iso 1 1 $(100.0*dt)
fix             fNPT all npt temp 540 540 25 iso 1 1 $(100.0*dt)
fix             fNPT all npt temp 540 540 25 iso 1 1 25
run             1200000
PPPM initialization ...
  G vector (1/distance) = 0.11408618
  grid = 4 4 4
  stencil order = 5
  estimated absolute RMS force accuracy = 0.28470724
  estimated relative force accuracy = 0.0008573874
  3d grid and FFT values/proc = 294 4
Generated 21 of 21 mixed pair_coeff terms from sixthpower/sixthpower mixing rule
Step          Temp          PotEng         E_vdwl         E_coul         E_bond        E_angle        E_dihed        E_impro        Density         Volume
3600091   555.6231       7933.8832      601.12511      2599.8675      3736.0308      4243.2466     -2060.5431      117.6953       0.87235795     59716.39
Averages over the last 31 of 62 rows, steps 4220000 to 4800091:
Temp PotEng E_vdwl E_coul E_bond E_angle E_dihed E_impro Density Volume
540.45 7438.11 465.637 2580.07 3729.68 4085.17 -2230.37 111.34 0.894993 58212.5
Loop time of 3686.62 on 24 procs for 1200000 steps with 5032 atoms

unfix           fNPT
unfix           fMOM
next            a
jump            SELF loop
variable        a loop 26
variable        b equal 600-20*($a-1)
variable        b equal 600-20*(5-1)
fix             fMOM all momentum 100 linear 1 1 1 angular
fix             fNPT all npt temp $b $b $(100.0*dt) iso 1 1 $(100.0*dt)
fix             fNPT all npt temp 520 $b $(100.0*dt) iso 1 1 $(100.0*dt)
fix             fNPT all npt temp 520 520 $(100.0*dt) iso 1 1 $(100.0*dt)
fix             fNPT all npt temp 520 520 25 iso 1 1 $(100.0*dt)
fix             fNPT all npt temp 520 520 25 iso 1 1 25
run             1200000
PPPM initialization ...
  G vector (1/distance) = 0.11472795
  grid = 4 4 4
  stencil order = 5
  estimated absolute RMS force accuracy = 0.2838038
  estimated relative force accuracy = 0.00085466671
  3d grid and FFT values/proc = 294 4
Generated 21 of 21 mixed pair_coeff terms from sixthpower/sixthpower mixing rule
Step          Temp          PotEng         E_vdwl         E_coul         E_bond        E_angle        E_dihed        E_impro        Density         Volume
4800091   555.59307      7312.5969      378.0318       2585.1186      3632.6754      4145.0843     -2226.2677      109.20017      0.89266577     58357.864
Averages over the last 31 of 62 rows, steps 5420000 to 6000091:
Temp PotEng E_vdwl E_coul E_bond E_angle E_dihed E_impro Density Volume
521.933 7133.17 424.018 2589.69 3623.25 3981.78 -2280.45 105.815 0.902006 57757.3
Loop time of 3707.44 on 24 procs for 1200000 steps with 5032 atoms

unfix           fNPT
unfix           fMOM
next            a
jump            SELF loop
variable        a loop 26
variable        b equal 600-20*($a-1)
variable        b equal 600-20*(6-1)
fix             fMOM all momentum 100 linear 1 1 1 angular
fix             fNPT all npt temp $b $b $(100.0*dt) iso 1 1 $(100.0*dt)
fix             fNPT all npt temp 500 $b $(100.0*dt) iso 1 1 $(100.0*dt)
fix             fNPT all npt temp 500 500 $(100.0*dt) iso 1 1 $(100.0*dt)
fix             fNPT all npt temp 500 500 25 iso 1 1 $(100.0*dt)
fix             fNPT all npt temp 500 500 25 iso 1 1 25
run             1200000
PPPM initialization ...
  G vector (1/distance) = 0.11478196
  grid = 4 4 4
  stencil order = 5
  estimated absolute RMS force accuracy = 0.28372638
  estimated relative force accuracy = 0.00085443358
  3d grid and FFT values/proc = 294 4
Generated 21 of 21 mixed pair_coeff terms from sixthpower/sixthpower mixing rule
Step          Temp          PotEng         E_vdwl         E_coul         E_bond        E_angle        E_dihed        E_impro        Density         Volume
6000091   515.68968      7264.3901      427.04152      2598.7418      3675.328       4071.026      -2309.0954      112.83309      0.89439351     58245.131
Averages over the last 31 of 62 rows, steps 6620000 to 7200091:
Temp PotEng E_vdwl E_coul E_bond E_angle E_dihed E_impro Density Volume
500.014 6774.8 355.842 2594.19 3510.28 3850.11 -2325.43 100.888 0.916726 56832
Loop time of 3697.5 on 24 procs for 1200000 steps with 5032 atoms

unfix           fNPT
unfix           fMOM
next            a
jump            SELF loop
variable        a loop 26
variable        b equal 600-20*($a-1)
variable        b equal 600-20*(7-1)
fix             fMOM all momentum 100 linear 1 1 1 angular
fix             fNPT all npt temp $b $b $(100.0*dt) iso 1 1 $(100.0*dt)
fix             fNPT all npt temp 480 $b $(100.0*dt) iso 1 1 $(100.0*dt)
fix             fNPT all npt temp 480 480 $(100.0*dt) iso 1 1 $(100.0*dt)
fix             fNPT all npt temp 480 480 25 iso 1 1 $(100.0*dt)
fix             fNPT all npt temp 480 480 25 iso 1 1 25
run             1200000
PPPM initialization ...
  G vector (1/distance) = 0.11577455
  grid = 4 4 4
  stencil order = 5
  estimated absolute RMS force accuracy = 0.28226602
  estimated relative force accuracy = 0.00085003573
  3d grid and FFT values/proc = 294 4
Generated 21 of 21 mixed pair_coeff terms from sixthpower/sixthpower mixing rule
Step          Temp          PotEng         E_vdwl         E_coul         E_bond        E_angle        E_dihed        E_impro        Density         Volume
7200091   501.75646      6772.3136      394.74843      2587.7154      3538.0861      3814.7746     -2345.4187      105.56347      0.92666758     56216.564
Averages over the last 31 of 62 rows, steps 7820000 to 8400091:
Temp PotEng E_vdwl E_coul E_bond E_angle E_dihed E_impro Density Volume
480.372 6372.33 305.918 2596.56 3377.11 3706.41 -2388.52 97.3112 0.927144 56191
Loop time of 3730.81 on 24 procs for 1200000 steps with 5032 atoms

unfix           fNPT
unfix           fMOM
next            a
jump            SELF loop
variable        a loop 26
variable        b equal 600-20*($a-1)
variable        b equal 600-20*(8-1)
fix             fMOM all momentum 100 linear 1 1 1 angular
fix             fNPT all npt temp $b $b $(100.0*dt) iso 1 1 $(100.0*dt)
fix             fNPT all npt temp 460 $b $(100.0*dt) iso 1 1 $(100.0*dt)
fix             fNPT all npt temp 460 460 $(100.0*dt) iso 1 1 $(100.0*dt)
fix             fNPT all npt temp 460 460 25 iso 1 1 $(100.0*dt)
fix             fNPT all npt temp 460 460 25 iso 1 1 25
run             1200000
PPPM initialization ...
  G vector (1/distance) = 0.11581148
  grid = 4 4 4
  stencil order = 5
  estimated absolute RMS force accuracy = 0.28221032
  estimated relative force accuracy = 0.000849868
  3d grid and FFT values/proc = 294 4
Generated 21 of 21 mixed pair_coeff terms from sixthpower/sixthpower mixing rule
Step          Temp          PotEng         E_vdwl         E_coul         E_bond        E_angle        E_dihed        E_impro        Density         Volume
8400091   481.12973      6390.0272      321.61927      2595.8256      3355.3487      3736.852      -2390.8862      93.935055      0.92788761     56142.648
Averages over the last 31 of 62 rows, steps 9020000 to 9600091:
Temp PotEng E_vdwl E_coul E_bond E_angle E_dihed E_impro Density Volume
459.149 6008.15 237.272 2590.04 3278.19 3587.48 -2454.83 93.3619 0.93883 55494
Loop time of 3773.01 on 24 procs for 1200000 steps with 5032 atoms

unfix           fNPT
unfix           fMOM
next            a
jump            SELF loop
variable        a loop 26
variable        b equal 600-20*($a-1)
variable        b equal 600-20*(9-1)
fix             fMOM all momentum 100 linear 1 1 1 angular
fix             fNPT all npt temp $b $b $(100.0*dt) iso 1 1 $(100.0*dt)
fix             fNPT all npt temp 440 $b $(100.0*dt) iso 1 1 $(100.0*dt)
fix             fNPT all npt temp 440 440 $(100.0*dt) iso 1 1 $(100.0*dt)
fix             fNPT all npt temp 440 440 25 iso 1 1 $(100.0*dt)
fix             fNPT all npt temp 440 440 25 iso 1 1 25
run             1200000
PPPM initialization ...
  G vector (1/distance) = 0.11651234
  grid = 4 4 4
  stencil order = 5
  estimated absolute RMS force accuracy = 0.28113495
  estimated relative force accuracy = 0.00084662954
  3d grid and FFT values/proc = 294 4
Generated 21 of 21 mixed pair_coeff terms from sixthpower/sixthpower mixing rule
Step          Temp          PotEng         E_vdwl         E_coul         E_bond        E_angle        E_dihed        E_impro        Density         Volume
9600091   462.6971       6010.9863      187.06565      2614.9092      3203.2048      3636.0873     -2393.1417      94.219349      0.95131028     54760.333
Averages over the last 31 of 62 rows, steps 10220000 to 10800091:
Temp PotEng E_vdwl E_coul E_bond E_angle E_dihed E_impro Density Volume
439.837 5664.83 171.249 2604.75 3135.13 3483.85 -2489.03 90.1355 0.949466 54869.3
Loop time of 3769.83 on 24 procs for 1200000 steps with 5032 atoms

unfix           fNPT
unfix           fMOM
next            a
jump            SELF loop
variable        a loop 26
variable        b equal 600-20*($a-1)
variable        b equal 600-20*(10-1)
fix             fMOM all momentum 100 linear 1 1 1 angular
fix             fNPT all npt temp $b $b $(100.0*dt) iso 1 1 $(100.0*dt)
fix             fNPT all npt temp 420 $b $(100.0*dt) iso 1 1 $(100.0*dt)
fix             fNPT all npt temp 420 420 $(100.0*dt) iso 1 1 $(100.0*dt)
fix             fNPT all npt temp 420 420 25 iso 1 1 $(100.0*dt)
fix             fNPT all npt temp 420 420 25 iso 1 1 25
run             1200000
PPPM initialization ...
  G vector (1/distance) = 0.11661372
  grid = 4 4 4
  stencil order = 5
  estimated absolute RMS force accuracy = 0.28097654
  estimated relative force accuracy = 0.0008461525
  3d grid and FFT values/proc = 294 4
Generated 21 of 21 mixed pair_coeff terms from sixthpower/sixthpower mixing rule
Step          Temp          PotEng         E_vdwl         E_coul         E_bond        E_angle        E_dihed        E_impro        Density         Volume
10800091   447.13469      5647.7642      189.9272       2603.8332      3109.1141      3527.7718     -2543.843       93.527835      0.95474071     54563.576
Averages over the last 31 of 62 rows, steps 11420000 to 12000091:
Temp PotEng E_vdwl E_coul E_bond E_angle E_dihed E_impro Density Volume
420.142 5307.96 123.031 2598.25 3028.38 3326.58 -2521.14 85.3459 0.96082 54221
Loop time of 3760.94 on 24 procs for 1200000 steps with 5032 atoms

unfix           fNPT
unfix           fMOM
next            a
jump            SELF loop
variable        a loop 26
variable        b equal 600-20*($a-1)
variable        b equal 600-20*(11-1)
fix             fMOM all momentum 100 linear 1 1 1 angular
fix             fNPT all npt temp $b $b $(100.0*dt) iso 1 1 $(100.0*dt)
fix             fNPT all npt temp 400 $b $(100.0*dt) iso 1 1 $(100.0*dt)
fix             fNPT all npt temp 400 400 $(100.0*dt) iso 1 1 $(100.0*dt)
fix             fNPT all npt temp 400 400 25 iso 1 1 $(100.0*dt)
fix             fNPT all npt temp 400 400 25 iso 1 1 25
run             1200000
PPPM initialization ...
  G vector (1/distance) = 0.11698744
  grid = 4 4 4
  stencil order = 5
  estimated absolute RMS force accuracy = 0.2803864
  estimated relative force accuracy = 0.00084437532
  3d grid and FFT values/proc = 294 4
Generated 21 of 21 mixed pair_coeff terms from sixthpower/sixthpower mixing rule
Step          Temp          PotEng         E_vdwl         E_coul         E_bond        E_angle        E_dihed        E_impro        Density         Volume
12000091   424.12259      5151.7563      87.568974      2598.4967      2990.0536      3222.5296     -2488.9732      78.840835      0.96748032     53845.093
Averages over the last 31 of 62 rows, steps 12620000 to 13200091:
Temp PotEng E_vdwl E_coul E_bond E_angle E_dihed E_impro Density Volume
400.101 4954.02 93.0566 2589.5 2907.3 3188.22 -2567.78 80.5524 0.966918 53879.5
Loop time of 3808.52 on 24 procs for 1200000 steps with 5032 atoms

unfix           fNPT
unfix           fMOM
next            a
jump            SELF loop
variable        a loop 26
variable        b equal 600-20*($a-1)
variable        b equal 600-20*(12-1)
fix             fMOM all momentum 100 linear 1 1 1 angular
fix             fNPT all npt temp $b $b $(100.0*dt) iso 1 1 $(100.0*dt)
fix             fNPT all npt temp 380 $b $(100.0*dt) iso 1 1 $(100.0*dt)
fix             fNPT all npt temp 380 380 $(100.0*dt) iso 1 1 $(100.0*dt)
fix             fNPT all npt temp 380 380 25 iso 1 1 $(100.0*dt)
fix             fNPT all npt temp 380 380 25 iso 1 1 25
run             1200000
PPPM initialization ...
  G vector (1/distance) = 0.11695193
  grid = 4 4 4
  stencil order = 5
  estimated absolute RMS force accuracy = 0.28044288
  estimated relative force accuracy = 0.00084454542
  3d grid and FFT values/proc = 294 4
Generated 21 of 21 mixed pair_coeff terms from sixthpower/sixthpower mixing rule
Step          Temp          PotEng         E_vdwl         E_coul         E_bond        E_angle        E_dihed        E_impro        Density         Volume
13200091   399.99881      4919.4021      73.162616      2595.6192      2930.2441      3211.9146     -2629.0754      74.178944      0.96626359     53912.895
Averages over the last 31 of 62 rows, steps 13820000 to 14400091:
Temp PotEng E_vdwl E_coul E_bond E_angle E_dihed E_impro Density Volume
380.635 4613.37 27.2838 2573.93 2804.95 3094.06 -2628.12 77.7575 0.980567 53129.1
Loop time of 3849.77 on 24 procs for 1200000 steps with 5032 atoms

unfix           fNPT
unfix           fMOM
next            a
jump            SELF loop
variable        a loop 26
variable        b equal 600-20*($a-1)
variable        b equal 600-20*(13-1)
fix             fMOM all momentum 100 linear 1 1 1 angular
fix             fNPT all npt temp $b $b $(100.0*dt) iso 1 1 $(100.0*dt)
fix             fNPT all npt temp 360 $b $(100.0*dt) iso 1 1 $(100.0*dt)
fix             fNPT all npt temp 360 360 $(100.0*dt) iso 1 1 $(100.0*dt)
fix             fNPT all npt temp 360 360 25 iso 1 1 $(100.0*dt)
fix             fNPT all npt temp 360 360 25 iso 1 1 25
run             1200000
PPPM initialization ...
  G vector (1/distance) = 0.11769836
  grid = 4 4 4
  stencil order = 5
  estimated absolute RMS force accuracy = 0.27923725
  estimated relative force accuracy = 0.0008409147
  3d grid and FFT values/proc = 294 4
Generated 21 of 21 mixed pair_coeff terms from sixthpower/sixthpower mixing rule
Step          Temp          PotEng         E_vdwl         E_coul         E_bond        E_angle        E_dihed        E_impro        Density         Volume
14400091   388.0777       4585.056       3.9215348      2599.8547      2762.6582      3117.3648     -2629.7211      76.268415      0.99212596     52507.514
Averages over the last 31 of 62 rows, steps 15020000 to 15600091:
Temp PotEng E_vdwl E_coul E_bond E_angle E_dihed E_impro Density Volume
360.685 4274.51 -16.2569 2586.06 2680.11 2958.19 -2662.38 73.8142 0.988133 52722.1
Loop time of 3814.74 on 24 procs for 1200000 steps with 5032 atoms

unfix           fNPT
unfix           fMOM
next            a
jump            SELF loop
variable        a loop 26
variable        b equal 600-20*($a-1)
variable        b equal 600-20*(14-1)
fix             fMOM all momentum 100 linear 1 1 1 angular
fix             fNPT all npt temp $b $b $(100.0*dt) iso 1 1 $(100.0*dt)
fix             fNPT all npt temp 340 $b $(100.0*dt) iso 1 1 $(100.0*dt)
fix             fNPT all npt temp 340 340 $(100.0*dt) iso 1 1 $(100.0*dt)
fix             fNPT all npt temp 340 340 25 iso 1 1 $(100.0*dt)
fix             fNPT all npt temp 340 340 25 iso 1 1 25
run             1200000
PPPM initialization ...
  G vector (1/distance) = 0.11774523
  grid = 4 4 4
  stencil order = 5
  estimated absolute RMS force accuracy = 0.27916028
  estimated relative force accuracy = 0.00084068289
  3d grid and FFT values/proc = 294 4
Generated 21 of 21 mixed pair_coeff terms from sixthpower/sixthpower mixing rule
Step          Temp          PotEng         E_vdwl         E_coul         E_bond        E_angle        E_dihed        E_impro        Density         Volume
15600091   365.53086      4247.8383      28.19242       2585.4472      2716.5499      2884.2893     -2695.4492      74.725699      0.99377        52420.648
Averages over the last 31 of 62 rows, steps 16220000 to 16800091:
Temp PotEng E_vdwl E_coul E_bond E_angle E_dihed E_impro Density Volume
340.561 3945.84 -83.3564 2579.18 2565.34 2859.34 -2698.71 69.4877 0.996058 52301.7
Loop time of 3815.42 on 24 procs for 1200000 steps with 5032 atoms

unfix           fNPT
unfix           fMOM
next            a
jump            SELF loop
variable        a loop 26
variable        b equal 600-20*($a-1)
variable        b equal 600-20*(15-1)
fix             fMOM all momentum 100 linear 1 1 1 angular
fix             fNPT all npt temp $b $b $(100.0*dt) iso 1 1 $(100.0*dt)
fix             fNPT all npt temp 320 $b $(100.0*dt) iso 1 1 $(100.0*dt)
fix             fNPT all npt temp 320 320 $(100.0*dt) iso 1 1 $(100.0*dt)
fix             fNPT all npt temp 320 320 25 iso 1 1 $(100.0*dt)
fix             fNPT all npt temp 320 320 25 iso 1 1 25
run             1200000
PPPM initialization ...
  G vector (1/distance) = 0.11795427
  grid = 4 4 4
  stencil order = 5
  estimated absolute RMS force accuracy = 0.27881518
  estimated relative force accuracy = 0.00083964364
  3d grid and FFT values/proc = 294 4
Generated 21 of 21 mixed pair_coeff terms from sixthpower/sixthpower mixing rule
Step          Temp          PotEng         E_vdwl         E_coul         E_bond        E_angle        E_dihed        E_impro        Density         Volume
16800091   341.16523      3850.6588     -118.31422      2584.1643      2604.521       2825.7916     -2764.0551      66.111964      1.0011313      52035.198
Averages over the last 31 of 62 rows, steps 17420000 to 18000091:
Temp PotEng E_vdwl E_coul E_bond E_angle E_dihed E_impro Density Volume
319.553 3603.18 -119.021 2566.62 2456.99 2730.41 -2748.56 64.5908 1.00621 51773.7
Loop time of 3829.64 on 24 procs for 1200000 steps with 5032 atoms

unfix           fNPT
unfix           fMOM
next            a
jump            SELF loop
variable        a loop 26
variable        b equal 600-20*($a-1)
variable        b equal 600-20*(16-1)
fix             fMOM all momentum 100 linear 1 1 1 angular
fix             fNPT all npt temp $b $b $(100.0*dt) iso 1 1 $(100.0*dt)
fix             fNPT all npt temp 300 $b $(100.0*dt) iso 1 1 $(100.0*dt)
fix             fNPT all npt temp 300 300 $(100.0*dt) iso 1 1 $(100.0*dt)
fix             fNPT all npt temp 300 300 25 iso 1 1 $(100.0*dt)
fix             fNPT all npt temp 300 300 25 iso 1 1 25
run             1200000
PPPM initialization ...
  G vector (1/distance) = 0.11820762
  grid = 4 4 4
  stencil order = 5
  estimated absolute RMS force accuracy = 0.278393
  estimated relative force accuracy = 0.00083837224
  3d grid and FFT values/proc = 294 4
Generated 21 of 21 mixed pair_coeff terms from sixthpower/sixthpower mixing rule
Step          Temp          PotEng         E_vdwl         E_coul         E_bond        E_angle        E_dihed        E_impro        Density         Volume
18000091   320.94519      3507.639      -132.77987      2572.3002      2366.1637      2726.4988     -2732.4344      58.200445      1.0101171      51572.305
Averages over the last 31 of 62 rows, steps 18620000 to 19200091:
Temp PotEng E_vdwl E_coul E_bond E_angle E_dihed E_impro Density Volume
299.492 3281.23 -161.322 2572.26 2333.91 2613.13 -2786.87 60.7834 1.01085 51536.3
Loop time of 3816.48 on 24 procs for 1200000 steps with 5032 atoms

unfix           fNPT
unfix           fMOM
next            a
jump            SELF loop
variable        a loop 26
variable        b equal 600-20*($a-1)
variable        b equal 600-20*(17-1)
fix             fMOM all momentum 100 linear 1 1 1 angular
fix             fNPT all npt temp $b $b $(100.0*dt) iso 1 1 $(100.0*dt)
fix             fNPT all npt temp 280 $b $(100.0*dt) iso 1 1 $(100.0*dt)
fix             fNPT all npt temp 280 280 $(100.0*dt) iso 1 1 $(100.0*dt)
fix             fNPT all npt temp 280 280 25 iso 1 1 $(100.0*dt)
fix             fNPT all npt temp 280 280 25 iso 1 1 25
run             1200000
PPPM initialization ...
  G vector (1/distance) = 0.11825276
  grid = 4 4 4
  stencil order = 5
  estimated absolute RMS force accuracy = 0.27831733
  estimated relative force accuracy = 0.00083814438
  3d grid and FFT values/proc = 294 4
Generated 21 of 21 mixed pair_coeff terms from sixthpower/sixthpower mixing rule
Step          Temp          PotEng         E_vdwl         E_coul         E_bond        E_angle        E_dihed        E_impro        Density         Volume
19200091   300.10771      3334.3533     -219.05111      2582.0039      2348.9153      2680.6964     -2764.244       56.946662      1.0117254      51490.322
Averages over the last 31 of 62 rows, steps 19820000 to 20400091:
Temp PotEng E_vdwl E_coul E_bond E_angle E_dihed E_impro Density Volume
279.682 2918.02 -215.496 2570.43 2203 2488.39 -2832.9 55.6936 1.02063 51041.8
Loop time of 3854.64 on 24 procs for 1200000 steps with 5032 atoms

unfix           fNPT
unfix           fMOM
next            a
jump            SELF loop
variable        a loop 26
variable        b equal 600-20*($a-1)
variable        b equal 600-20*(18-1)
fix             fMOM all momentum 100 linear 1 1 1 angular
fix             fNPT all npt temp $b $b $(100.0*dt) iso 1 1 $(100.0*dt)
fix             fNPT all npt temp 260 $b $(100.0*dt) iso 1 1 $(100.0*dt)
fix             fNPT all npt temp 260 260 $(100.0*dt) iso 1 1 $(100.0*dt)
fix             fNPT all npt temp 260 260 25 iso 1 1 $(100.0*dt)
fix             fNPT all npt temp 260 260 25 iso 1 1 25
run             1200000
PPPM initialization ...
  G vector (1/distance) = 0.11827864
  grid = 4 4 4
  stencil order = 5
  estimated absolute RMS force accuracy = 0.27827387
  estimated relative force accuracy = 0.00083801351
  3d grid and FFT values/proc = 294 4
Generated 21 of 21 mixed pair_coeff terms from sixthpower/sixthpower mixing rule
Step          Temp          PotEng         E_vdwl         E_coul         E_bond        E_angle        E_dihed        E_impro        Density         Volume
20400091   280.99058      2976.1755     -225.92458      2565.7588      2199.2832      2544.9789     -2816.9841      60.324725      1.0126488      51443.371
Averages over the last 31 of 62 rows, steps 21020000 to 21600091:
Temp PotEng E_vdwl E_coul E_bond E_angle E_dihed E_impro Density Volume
259.761 2604.34 -251.979 2557.05 2110.66 2368.84 -2881.57 53.1335 1.02613 50768.2
Loop time of 3866.1 on 24 procs for 1200000 steps with 5032 atoms

unfix           fNPT
unfix           fMOM
next            a
jump            SELF loop
variable        a loop 26
variable        b equal 600-20*($a-1)
variable        b equal 600-20*(19-1)
fix             fMOM all momentum 100 linear 1 1 1 angular
fix             fNPT all npt temp $b $b $(100.0*dt) iso 1 1 $(100.0*dt)
fix             fNPT all npt temp 240 $b $(100.0*dt) iso 1 1 $(100.0*dt)
fix             fNPT all npt temp 240 240 $(100.0*dt) iso 1 1 $(100.0*dt)
fix             fNPT all npt temp 240 240 25 iso 1 1 $(100.0*dt)
fix             fNPT all npt temp 240 240 25 iso 1 1 25
run             1200000
PPPM initialization ...
  G vector (1/distance) = 0.11856253
  grid = 4 4 4
  stencil order = 5
  estimated absolute RMS force accuracy = 0.27779438
  estimated relative force accuracy = 0.00083656952
  3d grid and FFT values/proc = 294 4
Generated 21 of 21 mixed pair_coeff terms from sixthpower/sixthpower mixing rule
Step          Temp          PotEng         E_vdwl         E_coul         E_bond        E_angle        E_dihed        E_impro        Density         Volume
21600091   260.95009      2572.7414     -280.31319      2577.9086      2168.6406      2360.527      -2956.9923      58.040186      1.0228239      50931.609
Averages over the last 31 of 62 rows, steps 22220000 to 22800091:
Temp PotEng E_vdwl E_coul E_bond E_angle E_dihed E_impro Density Volume
239.886 2290.39 -296.826 2558.87 1985.85 2261.73 -2913.21 49.0333 1.03204 50478
Loop time of 3865.93 on 24 procs for 1200000 steps with 5032 atoms

unfix           fNPT
unfix           fMOM
next            a
jump            SELF loop
variable        a loop 26
variable        b equal 600-20*($a-1)
variable        b equal 600-20*(20-1)
fix             fMOM all momentum 100 linear 1 1 1 angular
fix             fNPT all npt temp $b $b $(100.0*dt) iso 1 1 $(100.0*dt)
fix             fNPT all npt temp 220 $b $(100.0*dt) iso 1 1 $(100.0*dt)
fix             fNPT all npt temp 220 220 $(100.0*dt) iso 1 1 $(100.0*dt)
fix             fNPT all npt temp 220 220 25 iso 1 1 $(100.0*dt)
fix             fNPT all npt temp 220 220 25 iso 1 1 25
run             1200000
PPPM initialization ...
  G vector (1/distance) = 0.11892527
  grid = 4 4 4
  stencil order = 5
  estimated absolute RMS force accuracy = 0.27717394
  estimated relative force accuracy = 0.0008347011
  3d grid and FFT values/proc = 294 4
Generated 21 of 21 mixed pair_coeff terms from sixthpower/sixthpower mixing rule
Step          Temp          PotEng         E_vdwl         E_coul         E_bond        E_angle        E_dihed        E_impro        Density         Volume
22800091   239.15739      2264.7284     -292.11432      2583.749       2010.5041      2209.1208     -2937.2313      49.876163      1.035956       50285.985
Averages over the last 31 of 62 rows, steps 23420000 to 24000091:
Temp PotEng E_vdwl E_coul E_bond E_angle E_dihed E_impro Density Volume
219.694 1961.38 -337.943 2556.64 1884.85 2135.66 -2964.12 45.4677 1.0393 50124.8
Loop time of 3873.51 on 24 procs for 1200000 steps with 5032 atoms

unfix           fNPT
unfix           fMOM
next            a
jump            SELF loop
variable        a loop 26
variable        b equal 600-20*($a-1)
variable        b equal 600-20*(21-1)
fix             fMOM all momentum 100 linear 1 1 1 angular
fix             fNPT all npt temp $b $b $(100.0*dt) iso 1 1 $(100.0*dt)
fix             fNPT all npt temp 200 $b $(100.0*dt) iso 1 1 $(100.0*dt)
fix             fNPT all npt temp 200 200 $(100.0*dt) iso 1 1 $(100.0*dt)
fix             fNPT all npt temp 200 200 25 iso 1 1 $(100.0*dt)
fix             fNPT all npt temp 200 200 25 iso 1 1 25
run             1200000
PPPM initialization ...
  G vector (1/distance) = 0.11895885
  grid = 4 4 4
  stencil order = 5
  estimated absolute RMS force accuracy = 0.27711607
  estimated relative force accuracy = 0.00083452681
  3d grid and FFT values/proc = 294 4
Generated 21 of 21 mixed pair_coeff terms from sixthpower/sixthpower mixing rule
Step          Temp          PotEng         E_vdwl         E_coul         E_bond        E_angle        E_dihed        E_impro        Density         Volume
24000091   216.32518      1956.9209     -302.08117      2548.2669      1894.6855      2098.873      -2970.0737      46.753028      1.0371792      50226.68
Averages over the last 31 of 62 rows, steps 24620000 to 25200091:
Temp PotEng E_vdwl E_coul E_bond E_angle E_dihed E_impro Density Volume
200.67 1641.79 -363.494 2556.03 1754.34 2015.34 -3001.68 40.8176 1.04259 49966.9
Loop time of 3861.47 on 24 procs for 1200000 steps with 5032 atoms

unfix           fNPT
unfix           fMOM
next            a
jump            SELF loop
variable        a loop 26
variable        b equal 600-20*($a-1)
variable        b equal 600-20*(22-1)
fix             fMOM all momentum 100 linear 1 1 1 angular
fix             fNPT all npt temp $b $b $(100.0*dt) iso 1 1 $(100.0*dt)
fix             fNPT all npt temp 180 $b $(100.0*dt) iso 1 1 $(100.0*dt)
fix             fNPT all npt temp 180 180 $(100.0*dt) iso 1 1 $(100.0*dt)
fix             fNPT all npt temp 180 180 25 iso 1 1 $(100.0*dt)
fix             fNPT all npt temp 180 180 25 iso 1 1 25
run             1200000
PPPM initialization ...
  G vector (1/distance) = 0.1191781
  grid = 4 4 4
  stencil order = 5
  estimated absolute RMS force accuracy = 0.2767364
  estimated relative force accuracy = 0.00083338345
  3d grid and FFT values/proc = 294 4
Generated 21 of 21 mixed pair_coeff terms from sixthpower/sixthpower mixing rule
Step          Temp          PotEng         E_vdwl         E_coul         E_bond        E_angle        E_dihed        E_impro        Density         Volume
25200091   200.29666      1581.752      -370.45524      2559.5639      1683.8038      2036.1911     -3001.3479      36.297733      1.0451966      49841.404
Averages over the last 31 of 62 rows, steps 25820000 to 26400091:
Temp PotEng E_vdwl E_coul E_bond E_angle E_dihed E_impro Density Volume
179.996 1359.69 -407.221 2557.78 1660.01 1922.44 -3047.59 36.3228 1.04942 49641.6
Loop time of 3868.58 on 24 procs for 1200000 steps with 5032 atoms
